<?xml version="1.0" encoding="UTF-8"?>

<!-- generated on 2018/6/26 ¤U¤È 03:19:37 by Netedit Version 0.32.0
<?xml version="1.0" encoding="UTF-8"?>

<configuration xmlns:xsi="http://www.w3.org/2001/XMLSchema-instance" xsi:noNamespaceSchemaLocation="http://sumo.dlr.de/xsd/netconvertConfiguration.xsd">

    <input>
        <sumo-net-file value="D:\SumoPractice\RealMap_0626\data\SeparateNet\net.net.xml"/>
    </input>

    <output>
        <output-file value="D:\SumoPractice\RealMap_0626\data\SeparateNet\net.net.xml"/>
        <plain-output-prefix value="D:\SumoPractice\RealMap_0626\data\SeparateNet\node"/>
    </output>

    <processing>
        <no-turnarounds value="true"/>
        <offset.disable-normalization value="true"/>
        <lefthand value="false"/>
        <junctions.corner-detail value="0"/>
        <rectangular-lane-cut value="false"/>
        <walkingareas value="false"/>
    </processing>

</configuration>
-->

<connections version="0.27" xmlns:xsi="http://www.w3.org/2001/XMLSchema-instance" xsi:noNamespaceSchemaLocation="http://sumo.dlr.de/xsd/connections_file.xsd">
    <connection from="-108071651#0" to="31794910#0" fromLane="0" toLane="0"/>
    <connection from="-108071651#0" to="108071651#0" fromLane="0" toLane="0"/>

    <connection from="-108071651#1" to="-108071651#0" fromLane="0" toLane="0"/>
    <connection from="-108071651#1" to="108071651#1" fromLane="0" toLane="0"/>

    <connection from="-108071651#2" to="-108071651#1" fromLane="0" toLane="0"/>
    <connection from="-108071651#2" to="313194185#20" fromLane="0" toLane="1"/>
    <connection from="-108071651#2" to="108071651#2" fromLane="0" toLane="0"/>

    <connection from="-108071687#1" to="-108071687#0" fromLane="0" toLane="0"/>
    <connection from="-108071687#1" to="-108071687#0" fromLane="1" toLane="1"/>

    <connection from="-108071705" to="-531438437" fromLane="0" toLane="0"/>
    <connection from="-108071705" to="319100698#7" fromLane="0" toLane="1"/>
    <connection from="-108071705" to="108071705" fromLane="0" toLane="0"/>

    <connection from="-108071721#0" to="-531438449#3" fromLane="0" toLane="0"/>
    <connection from="-108071721#0" to="319100698#5" fromLane="0" toLane="1"/>
    <connection from="-108071721#0" to="108071721#0" fromLane="0" toLane="0"/>

    <connection from="-108071721#1" to="405115649" fromLane="0" toLane="0"/>
    <connection from="-108071721#1" to="-108071721#0" fromLane="0" toLane="0"/>
    <connection from="-108071721#1" to="108071721#1" fromLane="0" toLane="0"/>

    <connection from="-108071721#2" to="-108071721#1" fromLane="0" toLane="0"/>
    <connection from="-108071721#2" to="-160095000#13" fromLane="0" toLane="0"/>
    <connection from="-108071721#2" to="108071721#2" fromLane="0" toLane="0"/>

    <connection from="-108071721#3" to="392464674#0" fromLane="0" toLane="0"/>
    <connection from="-108071721#3" to="-108071721#2" fromLane="0" toLane="0"/>
    <connection from="-108071721#3" to="-260620058#3" fromLane="0" toLane="0"/>
    <connection from="-108071721#3" to="108071721#3" fromLane="0" toLane="0"/>

    <connection from="-108071721#4" to="-108071727#8" fromLane="0" toLane="0"/>
    <connection from="-108071721#4" to="-108071721#3" fromLane="0" toLane="0"/>
    <connection from="-108071721#4" to="108071727#9" fromLane="0" toLane="0"/>
    <connection from="-108071721#4" to="108071721#4" fromLane="0" toLane="0"/>

    <connection from="-108071721#5" to="-260615170#8" fromLane="0" toLane="0"/>
    <connection from="-108071721#5" to="-108071721#4" fromLane="0" toLane="0"/>
    <connection from="-108071721#5" to="260615170#9" fromLane="0" toLane="0"/>
    <connection from="-108071721#5" to="108071721#5" fromLane="0" toLane="0"/>

    <connection from="-108071722#0" to="313194185#9" fromLane="0" toLane="1"/>
    <connection from="-108071722#0" to="108071722#0" fromLane="0" toLane="0"/>

    <connection from="-108071722#1" to="496257368#20" fromLane="0" toLane="0"/>
    <connection from="-108071722#1" to="-108071722#0" fromLane="0" toLane="0"/>
    <connection from="-108071722#1" to="108071722#1" fromLane="0" toLane="0"/>

    <connection from="-108071722#10" to="-108071722#9" fromLane="0" toLane="0"/>
    <connection from="-108071722#10" to="108071722#10" fromLane="0" toLane="0"/>

    <connection from="-108071722#11" to="-108071722#10" fromLane="0" toLane="0"/>
    <connection from="-108071722#11" to="108071722#11" fromLane="0" toLane="0"/>

    <connection from="-108071722#12" to="-108071722#11" fromLane="0" toLane="0"/>
    <connection from="-108071722#12" to="108071722#12" fromLane="0" toLane="0"/>

    <connection from="-108071722#2" to="-108071722#1" fromLane="0" toLane="0"/>
    <connection from="-108071722#2" to="108071722#2" fromLane="0" toLane="0"/>

    <connection from="-108071722#3" to="-108071722#2" fromLane="0" toLane="0"/>
    <connection from="-108071722#3" to="108071722#3" fromLane="0" toLane="0"/>

    <connection from="-108071722#4" to="-108071722#3" fromLane="0" toLane="0"/>
    <connection from="-108071722#4" to="108071722#4" fromLane="0" toLane="0"/>

    <connection from="-108071722#5" to="-108071722#4" fromLane="0" toLane="0"/>
    <connection from="-108071722#5" to="108071722#5" fromLane="0" toLane="0"/>

    <connection from="-108071722#6" to="-108071722#5" fromLane="0" toLane="0"/>
    <connection from="-108071722#6" to="108071722#6" fromLane="0" toLane="0"/>

    <connection from="-108071722#7" to="-108071722#6" fromLane="0" toLane="0"/>
    <connection from="-108071722#7" to="108071722#7" fromLane="0" toLane="0"/>

    <connection from="-108071722#8" to="-108071722#7" fromLane="0" toLane="0"/>
    <connection from="-108071722#8" to="108071722#8" fromLane="0" toLane="0"/>

    <connection from="-108071722#9" to="-108071722#8" fromLane="0" toLane="0"/>
    <connection from="-108071722#9" to="108071722#9" fromLane="0" toLane="0"/>

    <connection from="-108071727#0" to="298597680#4" fromLane="0" toLane="0"/>
    <connection from="-108071727#0" to="-298597680#3" fromLane="0" toLane="0"/>
    <connection from="-108071727#0" to="108071727#0" fromLane="0" toLane="0"/>

    <connection from="-108071727#1" to="-108071727#0" fromLane="0" toLane="0"/>
    <connection from="-108071727#1" to="108071727#1" fromLane="0" toLane="0"/>

    <connection from="-108071727#10" to="-108071727#9" fromLane="0" toLane="0"/>
    <connection from="-108071727#10" to="108071727#10" fromLane="0" toLane="0"/>

    <connection from="-108071727#11" to="-108071727#10" fromLane="0" toLane="0"/>
    <connection from="-108071727#11" to="108071727#11" fromLane="0" toLane="0"/>

    <connection from="-108071727#12" to="-108071727#11" fromLane="0" toLane="0"/>
    <connection from="-108071727#12" to="108071727#12" fromLane="0" toLane="0"/>

    <connection from="-108071727#13" to="-260615169#3" fromLane="0" toLane="0"/>
    <connection from="-108071727#13" to="-108071727#12" fromLane="0" toLane="0"/>
    <connection from="-108071727#13" to="260615169#4" fromLane="0" toLane="0"/>
    <connection from="-108071727#13" to="108071727#13" fromLane="0" toLane="0"/>

    <connection from="-108071727#14" to="-108071727#13" fromLane="0" toLane="0"/>
    <connection from="-108071727#14" to="108071727#14" fromLane="0" toLane="0"/>

    <connection from="-108071727#15" to="-108071727#14" fromLane="0" toLane="0"/>
    <connection from="-108071727#15" to="108071727#15" fromLane="0" toLane="0"/>

    <connection from="-108071727#2" to="-108071727#1" fromLane="0" toLane="0"/>
    <connection from="-108071727#2" to="108071727#2" fromLane="0" toLane="0"/>

    <connection from="-108071727#3" to="-108071727#2" fromLane="0" toLane="0"/>
    <connection from="-108071727#3" to="108071727#3" fromLane="0" toLane="0"/>

    <connection from="-108071727#4" to="-108071727#3" fromLane="0" toLane="0"/>
    <connection from="-108071727#4" to="108071727#4" fromLane="0" toLane="0"/>

    <connection from="-108071727#5" to="-108071727#4" fromLane="0" toLane="0"/>
    <connection from="-108071727#5" to="108071727#5" fromLane="0" toLane="0"/>

    <connection from="-108071727#6" to="-108071727#5" fromLane="0" toLane="0"/>
    <connection from="-108071727#6" to="108071727#6" fromLane="0" toLane="0"/>

    <connection from="-108071727#7" to="-108071727#6" fromLane="0" toLane="0"/>
    <connection from="-108071727#7" to="108071727#7" fromLane="0" toLane="0"/>

    <connection from="-108071727#8" to="-108071727#7" fromLane="0" toLane="0"/>
    <connection from="-108071727#8" to="108071727#8" fromLane="0" toLane="0"/>

    <connection from="-108071727#9" to="108071721#4" fromLane="0" toLane="0"/>
    <connection from="-108071727#9" to="-108071727#8" fromLane="0" toLane="0"/>
    <connection from="-108071727#9" to="-108071721#3" fromLane="0" toLane="0"/>
    <connection from="-108071727#9" to="108071727#9" fromLane="0" toLane="0"/>

    <connection from="-108071733#0" to="-496714508#2" fromLane="0" toLane="0"/>
    <connection from="-108071733#0" to="298600773#0" fromLane="0" toLane="0"/>
    <connection from="-108071733#0" to="160253719#0" fromLane="0" toLane="0"/>
    <connection from="-108071733#0" to="108071733#0" fromLane="0" toLane="0"/>

    <connection from="-108071733#1" to="-108071733#0" fromLane="0" toLane="0"/>
    <connection from="-108071733#1" to="108071733#1" fromLane="0" toLane="0"/>

    <connection from="-108071733#2" to="314693930#0" fromLane="0" toLane="0"/>
    <connection from="-108071733#2" to="-108071733#1" fromLane="0" toLane="0"/>
    <connection from="-108071733#2" to="108071733#2" fromLane="0" toLane="0"/>

    <connection from="-108071733#3" to="-108071733#2" fromLane="0" toLane="0"/>
    <connection from="-108071733#3" to="-160253701#3" fromLane="0" toLane="0"/>
    <connection from="-108071733#3" to="108071733#3" fromLane="0" toLane="0"/>

    <connection from="-108071733#4" to="-108071733#3" fromLane="0" toLane="0"/>
    <connection from="-108071733#4" to="108071733#4" fromLane="0" toLane="0"/>

    <connection from="-108071733#5" to="-108071733#4" fromLane="0" toLane="0"/>
    <connection from="-108071733#5" to="108071733#5" fromLane="0" toLane="0"/>

    <connection from="-108071733#6" to="-108071733#5" fromLane="0" toLane="0"/>
    <connection from="-108071733#6" to="496257368#16" fromLane="0" toLane="1"/>
    <connection from="-108071733#6" to="108071733#6" fromLane="0" toLane="0"/>

    <connection from="-111343189" to="-496261704#8" fromLane="0" toLane="0"/>
    <connection from="-111343189" to="-253751064#7" fromLane="0" toLane="0"/>
    <connection from="-111343189" to="298592948#0" fromLane="0" toLane="0"/>
    <connection from="-111343189" to="111343189" fromLane="0" toLane="0"/>

    <connection from="-111343192#0" to="307096543#0" fromLane="0" toLane="0"/>
    <connection from="-111343192#0" to="-537706053#4" fromLane="0" toLane="0"/>
    <connection from="-111343192#0" to="-298592948#9" fromLane="0" toLane="0"/>
    <connection from="-111343192#0" to="111343192#0" fromLane="0" toLane="0"/>

    <connection from="-111343192#1" to="-111343192#0" fromLane="0" toLane="0"/>
    <connection from="-111343192#1" to="111343192#1" fromLane="0" toLane="0"/>

    <connection from="-111343192#10" to="-111343192#9" fromLane="0" toLane="0"/>
    <connection from="-111343192#10" to="111343192#10" fromLane="0" toLane="0"/>

    <connection from="-111343192#2" to="-111343192#1" fromLane="0" toLane="0"/>
    <connection from="-111343192#2" to="111343192#2" fromLane="0" toLane="0"/>

    <connection from="-111343192#3" to="-111343192#2" fromLane="0" toLane="0"/>
    <connection from="-111343192#3" to="111343192#3" fromLane="0" toLane="0"/>

    <connection from="-111343192#4" to="-111343192#3" fromLane="0" toLane="0"/>
    <connection from="-111343192#4" to="111343192#4" fromLane="0" toLane="0"/>

    <connection from="-111343192#5" to="-111343192#4" fromLane="0" toLane="0"/>
    <connection from="-111343192#5" to="111343192#5" fromLane="0" toLane="0"/>

    <connection from="-111343192#6" to="-111343192#5" fromLane="0" toLane="0"/>
    <connection from="-111343192#6" to="111343192#6" fromLane="0" toLane="0"/>

    <connection from="-111343192#7" to="-111343192#6" fromLane="0" toLane="0"/>
    <connection from="-111343192#7" to="111343192#7" fromLane="0" toLane="0"/>

    <connection from="-111343192#8" to="-111343192#7" fromLane="0" toLane="0"/>
    <connection from="-111343192#8" to="111343192#8" fromLane="0" toLane="0"/>

    <connection from="-111343192#9" to="-111343192#8" fromLane="0" toLane="0"/>
    <connection from="-111343192#9" to="36827729#0" fromLane="0" toLane="0"/>
    <connection from="-111343192#9" to="111343192#9" fromLane="0" toLane="0"/>

    <connection from="-152086655" to="152086655" fromLane="0" toLane="0"/>

    <connection from="-152086662" to="496249900#0" fromLane="0" toLane="0"/>
    <connection from="-152086662" to="-111343189" fromLane="0" toLane="0"/>
    <connection from="-152086662" to="152086662" fromLane="0" toLane="0"/>

    <connection from="-152193598#0" to="152193598#0" fromLane="0" toLane="0"/>

    <connection from="-152193598#1" to="-152193598#0" fromLane="0" toLane="0"/>
    <connection from="-152193598#1" to="152193598#1" fromLane="0" toLane="0"/>

    <connection from="-152193598#2" to="152193604#4" fromLane="0" toLane="0"/>
    <connection from="-152193598#2" to="-152193598#1" fromLane="0" toLane="0"/>
    <connection from="-152193598#2" to="-152193604#3" fromLane="0" toLane="0"/>
    <connection from="-152193598#2" to="152193598#2" fromLane="0" toLane="0"/>

    <connection from="-152193598#3" to="-152193598#2" fromLane="0" toLane="0"/>
    <connection from="-152193598#3" to="152193598#3" fromLane="0" toLane="0"/>

    <connection from="-152193598#4" to="152193611#7" fromLane="0" toLane="0"/>
    <connection from="-152193598#4" to="-152193598#3" fromLane="0" toLane="0"/>
    <connection from="-152193598#4" to="-152193611#6" fromLane="0" toLane="0"/>
    <connection from="-152193598#4" to="152193598#4" fromLane="0" toLane="0"/>

    <connection from="-152193604#0" to="-152193605#0" fromLane="0" toLane="0"/>
    <connection from="-152193604#0" to="152193605#1" fromLane="0" toLane="0"/>
    <connection from="-152193604#0" to="152193604#0" fromLane="0" toLane="0"/>

    <connection from="-152193604#1" to="-152193604#0" fromLane="0" toLane="0"/>
    <connection from="-152193604#1" to="152193604#1" fromLane="0" toLane="0"/>

    <connection from="-152193604#2" to="-152193604#1" fromLane="0" toLane="0"/>
    <connection from="-152193604#2" to="152193604#2" fromLane="0" toLane="0"/>

    <connection from="-152193604#3" to="-152193604#2" fromLane="0" toLane="0"/>
    <connection from="-152193604#3" to="152193604#3" fromLane="0" toLane="0"/>

    <connection from="-152193604#4" to="-152193598#1" fromLane="0" toLane="0"/>
    <connection from="-152193604#4" to="-152193604#3" fromLane="0" toLane="0"/>
    <connection from="-152193604#4" to="152193598#2" fromLane="0" toLane="0"/>
    <connection from="-152193604#4" to="152193604#4" fromLane="0" toLane="0"/>

    <connection from="-152193604#5" to="-152193604#4" fromLane="0" toLane="0"/>
    <connection from="-152193604#5" to="152193604#5" fromLane="0" toLane="0"/>

    <connection from="-152193605#0" to="152193605#0" fromLane="0" toLane="0"/>

    <connection from="-152193605#1" to="152193604#0" fromLane="0" toLane="0"/>
    <connection from="-152193605#1" to="-152193605#0" fromLane="0" toLane="0"/>
    <connection from="-152193605#1" to="152193605#1" fromLane="0" toLane="0"/>

    <connection from="-152193605#2" to="-152193605#1" fromLane="0" toLane="0"/>
    <connection from="-152193605#2" to="152193605#2" fromLane="0" toLane="0"/>

    <connection from="-152193605#3" to="152193611#5" fromLane="0" toLane="0"/>
    <connection from="-152193605#3" to="-152193605#2" fromLane="0" toLane="0"/>
    <connection from="-152193605#3" to="-152193611#4" fromLane="0" toLane="0"/>
    <connection from="-152193605#3" to="152193605#3" fromLane="0" toLane="0"/>

    <connection from="-152193611#0" to="152193611#0" fromLane="0" toLane="0"/>

    <connection from="-152193611#1" to="-152193611#0" fromLane="0" toLane="0"/>
    <connection from="-152193611#1" to="152193611#1" fromLane="0" toLane="0"/>

    <connection from="-152193611#2" to="-152193611#1" fromLane="0" toLane="0"/>
    <connection from="-152193611#2" to="306997517#2" fromLane="0" toLane="1"/>
    <connection from="-152193611#2" to="152193611#2" fromLane="0" toLane="0"/>

    <connection from="-152193611#3" to="316267746#1" fromLane="0" toLane="0"/>
    <connection from="-152193611#3" to="-152193611#2" fromLane="0" toLane="0"/>
    <connection from="-152193611#3" to="152193611#3" fromLane="0" toLane="0"/>

    <connection from="-152193611#4" to="-152193611#3" fromLane="0" toLane="0"/>
    <connection from="-152193611#4" to="152193611#4" fromLane="0" toLane="0"/>

    <connection from="-152193611#5" to="-152193605#2" fromLane="0" toLane="0"/>
    <connection from="-152193611#5" to="-152193611#4" fromLane="0" toLane="0"/>
    <connection from="-152193611#5" to="152193605#3" fromLane="0" toLane="0"/>
    <connection from="-152193611#5" to="152193611#5" fromLane="0" toLane="0"/>

    <connection from="-152193611#6" to="-152193611#5" fromLane="0" toLane="0"/>
    <connection from="-152193611#6" to="152193611#6" fromLane="0" toLane="0"/>

    <connection from="-152193611#7" to="-152193598#3" fromLane="0" toLane="0"/>
    <connection from="-152193611#7" to="-152193611#6" fromLane="0" toLane="0"/>
    <connection from="-152193611#7" to="152193598#4" fromLane="0" toLane="0"/>
    <connection from="-152193611#7" to="152193611#7" fromLane="0" toLane="0"/>

    <connection from="-152193617#0" to="152193617#0" fromLane="0" toLane="0"/>

    <connection from="-152193617#1" to="-152193617#0" fromLane="0" toLane="0"/>
    <connection from="-152193617#1" to="152193617#1" fromLane="0" toLane="0"/>

    <connection from="-152193617#2" to="-152193617#1" fromLane="0" toLane="0"/>
    <connection from="-152193617#2" to="152193617#2" fromLane="0" toLane="0"/>

    <connection from="-152193617#3" to="-152193617#2" fromLane="0" toLane="0"/>
    <connection from="-152193617#3" to="152193617#3" fromLane="0" toLane="0"/>

    <connection from="-152193617#4" to="-152193617#3" fromLane="0" toLane="0"/>
    <connection from="-152193617#4" to="313194185#17" fromLane="0" toLane="1"/>
    <connection from="-152193617#4" to="152193617#4" fromLane="0" toLane="0"/>

    <connection from="-159279414#0" to="496249900#6" fromLane="0" toLane="0"/>
    <connection from="-159279414#0" to="-496249900#5" fromLane="0" toLane="0"/>
    <connection from="-159279414#0" to="159279414#0" fromLane="0" toLane="0"/>

    <connection from="-159279414#1" to="-159279414#0" fromLane="0" toLane="0"/>
    <connection from="-159279414#1" to="159279414#1" fromLane="0" toLane="0"/>

    <connection from="-159279414#2" to="-159279417#2" fromLane="0" toLane="0"/>
    <connection from="-159279414#2" to="-159279414#1" fromLane="0" toLane="0"/>
    <connection from="-159279414#2" to="159279417#3" fromLane="0" toLane="0"/>
    <connection from="-159279414#2" to="159279414#2" fromLane="0" toLane="0"/>

    <connection from="-159279417#0" to="41389179" fromLane="0" toLane="0"/>
    <connection from="-159279417#0" to="41389179" fromLane="0" toLane="1"/>
    <connection from="-159279417#0" to="159279417#0" fromLane="0" toLane="0"/>

    <connection from="-159279417#1" to="-159279417#0" fromLane="0" toLane="0"/>
    <connection from="-159279417#1" to="159279417#1" fromLane="0" toLane="0"/>

    <connection from="-159279417#2" to="-159279417#1" fromLane="0" toLane="0"/>
    <connection from="-159279417#2" to="159279417#2" fromLane="0" toLane="0"/>

    <connection from="-159279417#3" to="159279414#2" fromLane="0" toLane="0"/>
    <connection from="-159279417#3" to="-159279417#2" fromLane="0" toLane="0"/>
    <connection from="-159279417#3" to="-159279414#1" fromLane="0" toLane="0"/>
    <connection from="-159279417#3" to="159279417#3" fromLane="0" toLane="0"/>

    <connection from="-159279417#4" to="41389169#3" fromLane="0" toLane="0"/>
    <connection from="-159279417#4" to="-159279417#3" fromLane="0" toLane="0"/>
    <connection from="-159279417#4" to="-41389169#2" fromLane="0" toLane="0"/>
    <connection from="-159279417#4" to="159279417#4" fromLane="0" toLane="0"/>

    <connection from="-160095000#0" to="313194185#4" fromLane="0" toLane="1"/>
    <connection from="-160095000#0" to="160095000#0" fromLane="0" toLane="0"/>

    <connection from="-160095000#1" to="496257368#23" fromLane="0" toLane="0"/>
    <connection from="-160095000#1" to="-160095000#0" fromLane="0" toLane="0"/>
    <connection from="-160095000#1" to="160095000#1" fromLane="0" toLane="0"/>

    <connection from="-160095000#10" to="260615169#7" fromLane="0" toLane="0"/>
    <connection from="-160095000#10" to="-160095000#9" fromLane="0" toLane="0"/>
    <connection from="-160095000#10" to="-260615169#6" fromLane="0" toLane="0"/>
    <connection from="-160095000#10" to="160095000#10" fromLane="0" toLane="0"/>

    <connection from="-160095000#11" to="-160095000#10" fromLane="0" toLane="0"/>
    <connection from="-160095000#11" to="160095000#11" fromLane="0" toLane="0"/>

    <connection from="-160095000#12" to="-160095000#11" fromLane="0" toLane="0"/>
    <connection from="-160095000#12" to="160095000#12" fromLane="0" toLane="0"/>

    <connection from="-160095000#13" to="-160095000#12" fromLane="0" toLane="0"/>
    <connection from="-160095000#13" to="160095000#13" fromLane="0" toLane="0"/>

    <connection from="-160095000#2" to="-160095000#1" fromLane="0" toLane="0"/>
    <connection from="-160095000#2" to="160095000#2" fromLane="0" toLane="0"/>

    <connection from="-160095000#3" to="-160095000#2" fromLane="0" toLane="0"/>
    <connection from="-160095000#3" to="160095000#3" fromLane="0" toLane="0"/>

    <connection from="-160095000#4" to="-160095000#3" fromLane="0" toLane="0"/>
    <connection from="-160095000#4" to="160095000#4" fromLane="0" toLane="0"/>

    <connection from="-160095000#5" to="-160095000#4" fromLane="0" toLane="0"/>
    <connection from="-160095000#5" to="160095000#5" fromLane="0" toLane="0"/>

    <connection from="-160095000#6" to="-160095000#5" fromLane="0" toLane="0"/>
    <connection from="-160095000#6" to="160095000#6" fromLane="0" toLane="0"/>

    <connection from="-160095000#7" to="-160095000#6" fromLane="0" toLane="0"/>
    <connection from="-160095000#7" to="160095000#7" fromLane="0" toLane="0"/>

    <connection from="-160095000#8" to="-160095000#7" fromLane="0" toLane="0"/>
    <connection from="-160095000#8" to="160095000#8" fromLane="0" toLane="0"/>

    <connection from="-160095000#9" to="-160095000#8" fromLane="0" toLane="0"/>
    <connection from="-160095000#9" to="160095000#9" fromLane="0" toLane="0"/>

    <connection from="-160095007#0" to="-160201456#8" fromLane="0" toLane="1"/>
    <connection from="-160095007#0" to="-108071687#1" fromLane="0" toLane="1"/>
    <connection from="-160095007#0" to="160095007#0" fromLane="0" toLane="0"/>

    <connection from="-160095007#1" to="228022804#0" fromLane="0" toLane="0"/>
    <connection from="-160095007#1" to="-160095007#0" fromLane="0" toLane="0"/>
    <connection from="-160095007#1" to="160095007#1" fromLane="0" toLane="0"/>

    <connection from="-160095007#10" to="-160095007#9" fromLane="0" toLane="0"/>
    <connection from="-160095007#10" to="160095007#10" fromLane="0" toLane="0"/>

    <connection from="-160095007#11" to="-160095007#10" fromLane="0" toLane="0"/>
    <connection from="-160095007#11" to="160095007#11" fromLane="0" toLane="0"/>

    <connection from="-160095007#12" to="-160095007#11" fromLane="0" toLane="0"/>
    <connection from="-160095007#12" to="160095007#12" fromLane="0" toLane="0"/>

    <connection from="-160095007#2" to="-160095007#1" fromLane="0" toLane="0"/>
    <connection from="-160095007#2" to="160095007#2" fromLane="0" toLane="0"/>

    <connection from="-160095007#3" to="-160095102#7" fromLane="0" toLane="0"/>
    <connection from="-160095007#3" to="-160095007#2" fromLane="0" toLane="0"/>
    <connection from="-160095007#3" to="160095007#3" fromLane="0" toLane="0"/>

    <connection from="-160095007#4" to="-160095007#3" fromLane="0" toLane="0"/>
    <connection from="-160095007#4" to="160095007#4" fromLane="0" toLane="0"/>

    <connection from="-160095007#5" to="-160095007#4" fromLane="0" toLane="0"/>
    <connection from="-160095007#5" to="160095007#5" fromLane="0" toLane="0"/>

    <connection from="-160095007#6" to="-160095007#5" fromLane="0" toLane="0"/>
    <connection from="-160095007#6" to="160095007#6" fromLane="0" toLane="0"/>

    <connection from="-160095007#7" to="-160095007#6" fromLane="0" toLane="0"/>
    <connection from="-160095007#7" to="160095007#7" fromLane="0" toLane="0"/>

    <connection from="-160095007#8" to="-160095007#7" fromLane="0" toLane="0"/>
    <connection from="-160095007#8" to="160095007#8" fromLane="0" toLane="0"/>

    <connection from="-160095007#9" to="-160095007#8" fromLane="0" toLane="0"/>
    <connection from="-160095007#9" to="160095007#9" fromLane="0" toLane="0"/>

    <connection from="-160095065#0" to="-298600773#0" fromLane="0" toLane="0"/>
    <connection from="-160095065#0" to="298600773#1" fromLane="0" toLane="0"/>
    <connection from="-160095065#0" to="160095065#0" fromLane="0" toLane="0"/>

    <connection from="-160095065#1" to="-160095065#0" fromLane="0" toLane="0"/>
    <connection from="-160095065#1" to="160095065#1" fromLane="0" toLane="0"/>

    <connection from="-160095065#2" to="-160095065#1" fromLane="0" toLane="0"/>
    <connection from="-160095065#2" to="160095065#2" fromLane="0" toLane="0"/>

    <connection from="-160095065#3" to="-160095065#2" fromLane="0" toLane="0"/>
    <connection from="-160095065#3" to="160095065#3" fromLane="0" toLane="0"/>

    <connection from="-160095065#4" to="-160095065#3" fromLane="0" toLane="0"/>
    <connection from="-160095065#4" to="160095065#4" fromLane="0" toLane="0"/>

    <connection from="-160095102#0" to="42449638#3" fromLane="0" toLane="0"/>
    <connection from="-160095102#0" to="160095102#0" fromLane="0" toLane="0"/>

    <connection from="-160095102#1" to="-160095102#0" fromLane="0" toLane="0"/>
    <connection from="-160095102#1" to="160095102#1" fromLane="0" toLane="0"/>

    <connection from="-160095102#2" to="-160095102#1" fromLane="0" toLane="0"/>
    <connection from="-160095102#2" to="160095102#2" fromLane="0" toLane="0"/>

    <connection from="-160095102#3" to="-160095102#2" fromLane="0" toLane="0"/>
    <connection from="-160095102#3" to="160095102#3" fromLane="0" toLane="0"/>

    <connection from="-160095102#4" to="-160095102#3" fromLane="0" toLane="0"/>
    <connection from="-160095102#4" to="160095102#4" fromLane="0" toLane="0"/>

    <connection from="-160095102#5" to="-160095102#4" fromLane="0" toLane="0"/>
    <connection from="-160095102#5" to="160095102#5" fromLane="0" toLane="0"/>

    <connection from="-160095102#6" to="-160095102#5" fromLane="0" toLane="0"/>
    <connection from="-160095102#6" to="160095102#6" fromLane="0" toLane="0"/>

    <connection from="-160095102#7" to="-160095102#6" fromLane="0" toLane="0"/>
    <connection from="-160095102#7" to="160095102#7" fromLane="0" toLane="0"/>

    <connection from="-160201456#0" to="298599475#2" fromLane="0" toLane="0"/>
    <connection from="-160201456#0" to="-298599475#1" fromLane="1" toLane="0"/>
    <connection from="-160201456#0" to="160201456#0" fromLane="1" toLane="1"/>

    <connection from="-160201456#1" to="-160201456#0" fromLane="0" toLane="0"/>
    <connection from="-160201456#1" to="-160201456#0" fromLane="1" toLane="1"/>
    <connection from="-160201456#1" to="160201456#1" fromLane="1" toLane="1"/>

    <connection from="-160201456#2" to="531438449#0" fromLane="0" toLane="0"/>
    <connection from="-160201456#2" to="-160201456#1" fromLane="0" toLane="0"/>
    <connection from="-160201456#2" to="-160201456#1" fromLane="1" toLane="1"/>
    <connection from="-160201456#2" to="160201456#2" fromLane="1" toLane="1"/>

    <connection from="-160201456#3" to="-531438439#1" fromLane="0" toLane="0"/>
    <connection from="-160201456#3" to="-160201456#2" fromLane="0" toLane="0"/>
    <connection from="-160201456#3" to="-160201456#2" fromLane="1" toLane="1"/>
    <connection from="-160201456#3" to="160201456#3" fromLane="1" toLane="1"/>

    <connection from="-160201456#4" to="-531438440#1" fromLane="0" toLane="0"/>
    <connection from="-160201456#4" to="-160201456#3" fromLane="0" toLane="0"/>
    <connection from="-160201456#4" to="-160201456#3" fromLane="1" toLane="1"/>
    <connection from="-160201456#4" to="160201456#4" fromLane="1" toLane="1"/>

    <connection from="-160201456#5" to="-531438441#1" fromLane="0" toLane="0"/>
    <connection from="-160201456#5" to="-160201456#4" fromLane="0" toLane="0"/>
    <connection from="-160201456#5" to="-160201456#4" fromLane="1" toLane="1"/>
    <connection from="-160201456#5" to="160201456#5" fromLane="1" toLane="1"/>

    <connection from="-160201456#6" to="-531438442#1" fromLane="0" toLane="0"/>
    <connection from="-160201456#6" to="-160201456#5" fromLane="0" toLane="0"/>
    <connection from="-160201456#6" to="-160201456#5" fromLane="1" toLane="1"/>