<?xml version="1.0" encoding="UTF-8"?>

<!-- generated on 2018/6/26 ¤U¤È 03:19:37 by Netedit Version 0.32.0
<?xml version="1.0" encoding="UTF-8"?>

<configuration xmlns:xsi="http://www.w3.org/2001/XMLSchema-instance" xsi:noNamespaceSchemaLocation="http://sumo.dlr.de/xsd/netconvertConfiguration.xsd">

    <input>
        <sumo-net-file value="D:\SumoPractice\RealMap_0626\data\SeparateNet\net.net.xml"/>
    </input>

    <output>
        <output-file value="D:\SumoPractice\RealMap_0626\data\SeparateNet\net.net.xml"/>
        <plain-output-prefix value="D:\SumoPractice\RealMap_0626\data\SeparateNet\node"/>
    </output>

    <processing>
        <no-turnarounds value="true"/>
        <offset.disable-normalization value="true"/>
        <lefthand value="false"/>
        <junctions.corner-detail value="0"/>
        <rectangular-lane-cut value="false"/>
        <walkingareas value="false"/>
    </processing>

</configuration>
-->

<edges version="0.27" xmlns:xsi="http://www.w3.org/2001/XMLSchema-instance" xsi:noNamespaceSchemaLocation="http://sumo.dlr.de/xsd/edges_file.xsd">
    <edge id="-108071651#0" from="5424675626" to="1240617901" priority="6" type="highway.tertiary" numLanes="1" speed="22.22" shape="1865.21,2085.03 1863.61,2101.12 1860.26,2123.83 1853.29,2148.04 1845.15,2169.27 1801.73,2254.16" disallow="tram rail_urban rail rail_electric ship"/>
    <edge id="-108071651#1" from="1240618254" to="5424675626" priority="6" type="highway.tertiary" numLanes="1" speed="22.22" disallow="tram rail_urban rail rail_electric ship"/>
    <edge id="-108071651#2" from="1240618352" to="1240618254" priority="6" type="highway.tertiary" numLanes="1" speed="22.22" disallow="tram rail_urban rail rail_electric ship"/>
    <edge id="-108071687#0" from="2864278443" to="1240617662" priority="7" type="highway.secondary" numLanes="2" speed="27.78" disallow="tram rail_urban rail rail_electric ship"/>
    <edge id="-108071687#1" from="1240618239" to="2864278443" priority="7" type="highway.secondary" numLanes="2" speed="27.78" shape="3075.83,1894.44 3205.70,1901.57 3345.90,1900.70 3440.56,1898.92 3576.88,1896.36 3769.70,1892.72 3885.85,1890.53" disallow="tram rail_urban rail rail_electric ship"/>
    <edge id="-108071705" from="1721697244" to="3070820659" priority="4" type="highway.residential" numLanes="1" speed="13.89" disallow="tram rail_urban rail rail_electric ship"/>
    <edge id="-108071721#0" from="1721697176" to="2204802398" priority="4" type="highway.residential" numLanes="1" speed="13.89" disallow="tram rail_urban rail rail_electric ship"/>
    <edge id="-108071721#1" from="3074414471" to="1721697176" priority="4" type="highway.residential" numLanes="1" speed="13.89" disallow="tram rail_urban rail rail_electric ship"/>
    <edge id="-108071721#2" from="3233186752" to="3074414471" priority="4" type="highway.residential" numLanes="1" speed="13.89" shape="2158.46,1305.16 2239.43,1294.27 2309.02,1285.62" disallow="tram rail_urban rail rail_electric ship"/>
    <edge id="-108071721#3" from="2864278419" to="3233186752" priority="4" type="highway.residential" numLanes="1" speed="13.89" disallow="tram rail_urban rail rail_electric ship"/>
    <edge id="-108071721#4" from="1240618193" to="2864278419" priority="4" type="highway.residential" numLanes="1" speed="13.89" disallow="tram rail_urban rail rail_electric ship"/>
    <edge id="-108071721#5" from="1240617660" to="1240618193" priority="4" type="highway.residential" numLanes="1" speed="13.89" disallow="tram rail_urban rail rail_electric ship"/>
    <edge id="-108071722#0" from="1721697345" to="1721697349" priority="4" type="highway.residential" numLanes="1" speed="13.89" disallow="tram rail_urban rail rail_electric ship"/>
    <edge id="-108071722#1" from="5424067670" to="1721697345" priority="4" type="highway.residential" numLanes="1" speed="13.89" disallow="tram rail_urban rail rail_electric ship"/>
    <edge id="-108071722#10" from="3207407196" to="3767382341" priority="4" type="highway.residential" numLanes="1" speed="13.89" disallow="tram rail_urban rail rail_electric ship"/>
    <edge id="-108071722#11" from="1721697259" to="3207407196" priority="4" type="highway.residential" numLanes="1" speed="13.89" disallow="tram rail_urban rail rail_electric ship"/>
    <edge id="-108071722#12" from="1240618664" to="1721697259" priority="4" type="highway.residential" numLanes="1" speed="13.89" disallow="tram rail_urban rail rail_electric ship"/>
    <edge id="-108071722#2" from="5388446808" to="5424067670" priority="4" type="highway.residential" numLanes="1" speed="13.89" disallow="tram rail_urban rail rail_electric ship"/>
    <edge id="-108071722#3" from="3767361282" to="5388446808" priority="4" type="highway.residential" numLanes="1" speed="13.89" disallow="tram rail_urban rail rail_electric ship"/>
    <edge id="-108071722#4" from="1723131539" to="3767361282" priority="4" type="highway.residential" numLanes="1" speed="13.89" disallow="tram rail_urban rail rail_electric ship"/>
    <edge id="-108071722#5" from="1721697305" to="1723131539" priority="4" type="highway.residential" numLanes="1" speed="13.89" disallow="tram rail_urban rail rail_electric ship"/>
    <edge id="-108071722#6" from="1723131525" to="1721697305" priority="4" type="highway.residential" numLanes="1" speed="13.89" disallow="tram rail_urban rail rail_electric ship"/>
    <edge id="-108071722#7" from="1721697293" to="1723131525" priority="4" type="highway.residential" numLanes="1" speed="13.89" disallow="tram rail_urban rail rail_electric ship"/>
    <edge id="-108071722#8" from="1723131515" to="1721697293" priority="4" type="highway.residential" numLanes="1" speed="13.89" disallow="tram rail_urban rail rail_electric ship"/>
    <edge id="-108071722#9" from="3767382341" to="1723131515" priority="4" type="highway.residential" numLanes="1" speed="13.89" disallow="tram rail_urban rail rail_electric ship"/>
    <edge id="-108071727#0" from="1721697121" to="1240618124" priority="4" type="highway.residential" numLanes="1" speed="13.89" disallow="tram rail_urban rail rail_electric ship"/>
    <edge id="-108071727#1" from="5427987561" to="1721697121" priority="4" type="highway.residential" numLanes="1" speed="13.89" disallow="tram rail_urban rail rail_electric ship"/>
    <edge id="-108071727#10" from="3074414466" to="2864278428" priority="4" type="highway.residential" numLanes="1" speed="13.89" disallow="tram rail_urban rail rail_electric ship"/>
    <edge id="-108071727#11" from="1721697248" to="3074414466" priority="4" type="highway.residential" numLanes="1" speed="13.89" disallow="tram rail_urban rail rail_electric ship"/>
    <edge id="-108071727#12" from="1240618259" to="1721697248" priority="4" type="highway.residential" numLanes="1" speed="13.89" disallow="tram rail_urban rail rail_electric ship"/>
    <edge id="-108071727#13" from="1723131507" to="1240618259" priority="4" type="highway.residential" numLanes="1" speed="13.89" disallow="tram rail_urban rail rail_electric ship"/>
    <edge id="-108071727#14" from="1721697275" to="1723131507" priority="4" type="highway.residential" numLanes="1" speed="13.89" disallow="tram rail_urban rail rail_electric ship"/>
    <edge id="-108071727#15" from="3207407205" to="1721697275" priority="4" type="highway.residential" numLanes="1" speed="13.89" disallow="tram rail_urban rail rail_electric ship"/>
    <edge id="-108071727#2" from="1721697126" to="5427987561" priority="4" type="highway.residential" numLanes="1" speed="13.89" disallow="tram rail_urban rail rail_electric ship"/>
    <edge id="-108071727#3" from="1721697134" to="1721697126" priority="4" type="highway.residential" numLanes="1" speed="13.89" disallow="tram rail_urban rail rail_electric ship"/>
    <edge id="-108071727#4" from="1240618338" to="1721697134" priority="4" type="highway.residential" numLanes="1" speed="13.89" disallow="tram rail_urban rail rail_electric ship"/>
    <edge id="-108071727#5" from="1721697160" to="1240618338" priority="4" type="highway.residential" numLanes="1" speed="13.89" disallow="tram rail_urban rail rail_electric ship"/>
    <edge id="-108071727#6" from="1721697178" to="1721697160" priority="4" type="highway.residential" numLanes="1" speed="13.89" disallow="tram rail_urban rail rail_electric ship"/>
    <edge id="-108071727#7" from="4429657043" to="1721697178" priority="4" type="highway.residential" numLanes="1" speed="13.89" disallow="tram rail_urban rail rail_electric ship"/>
    <edge id="-108071727#8" from="2864278419" to="4429657043" priority="4" type="highway.residential" numLanes="1" speed="13.89" disallow="tram rail_urban rail rail_electric ship"/>
    <edge id="-108071727#9" from="2864278428" to="2864278419" priority="4" type="highway.residential" numLanes="1" speed="13.89" disallow="tram rail_urban rail rail_electric ship"/>
    <edge id="-108071733#0" from="1721697341" to="1240618052" priority="4" type="highway.residential" numLanes="1" speed="13.89" disallow="tram rail_urban rail rail_electric ship"/>
    <edge id="-108071733#1" from="2863773100" to="1721697341" priority="4" type="highway.residential" numLanes="1" speed="13.89" disallow="tram rail_urban rail rail_electric ship"/>
    <edge id="-108071733#2" from="1240618572" to="2863773100" priority="4" type="highway.residential" numLanes="1" speed="13.89" disallow="tram rail_urban rail rail_electric ship"/>
    <edge id="-108071733#3" from="5424067681" to="1240618572" priority="4" type="highway.residential" numLanes="1" speed="13.89" disallow="tram rail_urban rail rail_electric ship"/>
    <edge id="-108071733#4" from="1240617981" to="5424067681" priority="4" type="highway.residential" numLanes="1" speed="13.89" disallow="tram rail_urban rail rail_electric ship"/>
    <edge id="-108071733#5" from="1650294505" to="1240617981" priority="4" type="highway.residential" numLanes="1" speed="13.89" disallow="tram rail_urban rail rail_electric ship"/>
    <edge id="-108071733#6" from="3207407927" to="1650294505" priority="4" type="highway.residential" numLanes="1" speed="13.89" disallow="tram rail_urban rail rail_electric ship"/>
    <edge id="-111343189" from="4309917339" to="256016221" priority="6" type="highway.tertiary" numLanes="1" speed="22.22" disallow="tram rail_urban rail rail_electric ship"/>
    <edge id="-111343192#0" from="5485764941" to="355961064" priority="3" type="highway.living_street" numLanes="1" speed="8.33" disallow="tram rail_urban rail rail_electric ship"/>
    <edge id="-111343192#1" from="3058330170" to="5485764941" priority="3" type="highway.living_street" numLanes="1" speed="8.33" disallow="tram rail_urban rail rail_electric ship"/>
    <edge id="-111343192#10" from="1650294499" to="1723635553" priority="3" type="highway.living_street" numLanes="1" speed="8.33" disallow="tram rail_urban rail rail_electric ship"/>
    <edge id="-111343192#2" from="3256733522" to="3058330170" priority="3" type="highway.living_street" numLanes="1" speed="8.33" disallow="tram rail_urban rail rail_electric ship"/>
    <edge id="-111343192#3" from="3908573835" to="3256733522" priority="3" type="highway.living_street" numLanes="1" speed="8.33" disallow="tram rail_urban rail rail_electric ship"/>
    <edge id="-111343192#4" from="5610895025" to="3908573835" priority="3" type="highway.living_street" numLanes="1" speed="8.33" disallow="tram rail_urban rail rail_electric ship"/>
    <edge id="-111343192#5" from="4957072765" to="5610895025" priority="3" type="highway.living_street" numLanes="1" speed="8.33" disallow="tram rail_urban rail rail_electric ship"/>
    <edge id="-111343192#6" from="2094383140" to="4957072765" priority="3" type="highway.living_street" numLanes="1" speed="8.33" disallow="tram rail_urban rail rail_electric ship"/>
    <edge id="-111343192#7" from="1650311127" to="2094383140" priority="3" type="highway.living_street" numLanes="1" speed="8.33" disallow="tram rail_urban rail rail_electric ship"/>
    <edge id="-111343192#8" from="428093552" to="1650311127" priority="3" type="highway.living_street" numLanes="1" speed="8.33" disallow="tram rail_urban rail rail_electric ship"/>
    <edge id="-111343192#9" from="1723635553" to="428093552" priority="3" type="highway.living_street" numLanes="1" speed="8.33" disallow="tram rail_urban rail rail_electric ship"/>
    <edge id="-152086655" from="1713837515" to="1649165543" priority="4" type="highway.residential" numLanes="1" speed="13.89" shape="560.58,1476.97 518.73,1481.23 504.00,1482.74 489.26,1484.25 474.53,1485.75 401.59,1493.19 383.28,1495.06 364.53,1496.96 322.21,1501.28" disallow="tram rail_urban rail rail_electric ship"/>
    <edge id="-152086662" from="4894404752" to="4309917339" priority="6" type="highway.tertiary" numLanes="1" speed="22.22" disallow="tram rail_urban rail rail_electric ship"/>
    <edge id="-152193598#0" from="3958591777" to="1727367569" priority="4" type="highway.residential" numLanes="1" speed="13.89" shape="533.04,507.92 517.16,462.55 502.13,420.65 502.04,410.93 505.63,387.32 512.46,366.01 513.74,346.64 510.39,324.62 502.47,313.27 488.89,304.58 482.64,294.12 481.80,279.16 483.10,270.72 483.60,267.45 492.00,255.60 500.94,243.21 504.26,234.19 506.11,225.22 505.21,207.16 502.32,189.89 501.65,173.83 503.37,152.34 504.01,144.45" disallow="tram rail_urban rail rail_electric ship"/>
    <edge id="-152193598#1" from="1650294410" to="3958591777" priority="4" type="highway.residential" numLanes="1" speed="13.89" disallow="tram rail_urban rail rail_electric ship"/>
    <edge id="-152193598#2" from="4309978166" to="1650294410" priority="4" type="highway.residential" numLanes="1" speed="13.89" disallow="tram rail_urban rail rail_electric ship"/>
    <edge id="-152193598#3" from="1650294419" to="4309978166" priority="4" type="highway.residential" numLanes="1" speed="13.89" disallow="tram rail_urban rail rail_electric ship"/>
    <edge id="-152193598#4" from="1650294432" to="1650294419" priority="4" type="highway.residential" numLanes="1" speed="13.89" disallow="tram rail_urban rail rail_electric ship"/>
    <edge id="-152193604#0" from="4429576989" to="1650294405" priority="4" type="highway.residential" numLanes="1" speed="13.89" shape="627.33,531.21 670.04,516.64 687.46,509.77" disallow="tram rail_urban rail rail_electric ship"/>
    <edge id="-152193604#1" from="1727367637" to="4429576989" priority="4" type="highway.residential" numLanes="1" speed="13.89" disallow="tram rail_urban rail rail_electric ship"/>
    <edge id="-152193604#2" from="1727367638" to="1727367637" priority="4" type="highway.residential" numLanes="1" speed="13.89" disallow="tram rail_urban rail rail_electric ship"/>
    <edge id="-152193604#3" from="1650294410" to="1727367638" priority="4" type="highway.residential" numLanes="1" speed="13.89" disallow="tram rail_urban rail rail_electric ship"/>
    <edge id="-152193604#4" from="1650294414" to="1650294410" priority="4" type="highway.residential" numLanes="1" speed="13.89" disallow="tram rail_urban rail rail_electric ship"/>
    <edge id="-152193604#5" from="1650294417" to="1650294414" priority="4" type="highway.residential" numLanes="1" speed="13.89" shape="301.95,647.02 374.27,621.64 384.24,617.24 440.04,599.38" disallow="tram rail_urban rail rail_electric ship"/>
    <edge id="-152193605#0" from="1650294405" to="1650294396" priority="4" type="highway.residential" numLanes="1" speed="13.89" shape="687.46,509.77 673.03,468.34 665.86,448.33 653.05,412.56" disallow="tram rail_urban rail rail_electric ship"/>
    <edge id="-152193605#1" from="1721748940" to="1650294405" priority="4" type="highway.residential" numLanes="1" speed="13.89" disallow="tram rail_urban rail rail_electric ship"/>
    <edge id="-152193605#2" from="1650294412" to="1721748940" priority="4" type="highway.residential" numLanes="1" speed="13.89" disallow="tram rail_urban rail rail_electric ship"/>
    <edge id="-152193605#3" from="1650294422" to="1650294412" priority="4" type="highway.residential" numLanes="1" speed="13.89" disallow="tram rail_urban rail rail_electric ship"/>
    <edge id="-152193611#0" from="1721697103" to="1721697099" priority="4" type="highway.residential" numLanes="1" speed="13.89" shape="995.47,488.24 1044.22,470.83 1100.25,450.82" disallow="tram rail_urban rail rail_electric ship"/>
    <edge id="-152193611#1" from="1650294407" to="1721697103" priority="4" type="highway.residential" numLanes="1" speed="13.89" disallow="tram rail_urban rail rail_electric ship"/>
    <edge id="-152193611#2" from="1650294408" to="1650294407" priority="4" type="highway.residential" numLanes="1" speed="13.89" disallow="tram rail_urban rail rail_electric ship"/>
    <edge id="-152193611#3" from="1968086088" to="1650294408" priority="4" type="highway.residential" numLanes="1" speed="13.89" disallow="tram rail_urban rail rail_electric ship"/>
    <edge id="-152193611#4" from="1650294412" to="1968086088" priority="4" type="highway.residential" numLanes="1" speed="13.89" disallow="tram rail_urban rail rail_electric ship"/>
    <edge id="-152193611#5" from="1727367651" to="1650294412" priority="4" type="highway.residential" numLanes="1" speed="13.89" disallow="tram rail_urban rail rail_electric ship"/>
    <edge id="-152193611#6" from="1650294419" to="1727367651" priority="4" type="highway.residential" numLanes="1" speed="13.89" disallow="tram rail_urban rail rail_electric ship"/>
    <edge id="-152193611#7" from="1650294434" to="1650294419" priority="4" type="highway.residential" numLanes="1" speed="13.89" shape="274.06,751.08 469.83,682.08 580.08,642.57" disallow="tram rail_urban rail rail_electric ship"/>
    <edge id="-152193617#0" from="1650294516" to="1650294558" priority="4" type="highway.residential" numLanes="1" speed="13.89" shape="1917.67,2141.84 1905.87,2166.40 1899.29,2237.63 1898.44,2263.50" disallow="tram rail_urban rail rail_electric ship"/>
    <edge id="-152193617#1" from="5424675627" to="1650294516" priority="4" type="highway.residential" numLanes="1" speed="13.89" shape="1979.59,2046.11 1980.16,2051.88 1982.37,2079.17 1979.92,2091.51 1972.32,2103.66 1950.35,2119.28 1927.80,2134.65 1917.67,2141.84" disallow="tram rail_urban rail rail_electric ship"/>
    <edge id="-152193617#2" from="1721697393" to="5424675627" priority="4" type="highway.residential" numLanes="1" speed="13.89" disallow="tram rail_urban rail rail_electric ship"/>
    <edge id="-152193617#3" from="1650294508" to="1721697393" priority="4" type="highway.residential" numLanes="1" speed="13.89" disallow="tram rail_urban rail rail_electric ship"/>
    <edge id="-152193617#4" from="1650294507" to="1650294508" priority="4" type="highway.residential" numLanes="1" speed="13.89" disallow="tram rail_urban rail rail_electric ship"/>
    <edge id="-159279414#0" from="5325339205" to="1650294465" priority="4" type="highway.residential" numLanes="1" speed="13.89" disallow="tram rail_urban rail rail_electric ship"/>
    <edge id="-159279414#1" from="1650294466" to="5325339205" priority="4" type="highway.residential" numLanes="1" speed="13.89" disallow="tram rail_urban rail rail_electric ship"/>
    <edge id="-159279414#2" from="1650294467" to="1650294466" priority="4" type="highway.residential" numLanes="1" speed="13.89" shape="208.57,982.57 259.75,979.26 310.77,975.63 349.52,973.00 380.85,970.87 413.51,968.65 519.49,961.70" disallow="tram rail_urban rail rail_electric ship"/>
    <edge id="-159279417#0" from="5325339209" to="1650294438" priority="4" type="highway.residential" numLanes="1" speed="13.89" disallow="tram rail_urban rail rail_electric ship"/>
    <edge id="-159279417#1" from="1731541478" to="5325339209" priority="4" type="highway.residential" numLanes="1" speed="13.89" shape="514.47,914.38 512.25,893.41 507.55,849.00" disallow="tram rail_urban rail rail_electric ship"/>
    <edge id="-159279417#2" from="1650294466" to="1731541478" priority="4" type="highway.residential" numLanes="1" speed="13.89" disallow="tram rail_urban rail rail_electric ship"/>
    <edge id="-159279417#3" from="1650294479" to="1650294466" priority="4" type="highway.residential" numLanes="1" speed="13.89" disallow="tram rail_urban rail rail_electric ship"/>
    <edge id="-159279417#4" from="1650311113" to="1650294479" priority="4" type="highway.residential" numLanes="1" speed="13.89" shape="553.65,1284.35 546.61,1217.89 539.28,1148.71" disallow="tram rail_urban rail rail_electric ship"/>
    <edge id="-160095000#0" from="1721697326" to="1721697343" priority="4" type="highway.residential" numLanes="1" speed="13.89" disallow="tram rail_urban rail rail_electric ship"/>
    <edge id="-160095000#1" from="5424067673" to="1721697326" priority="4" type="highway.residential" numLanes="1" speed="13.89" disallow="tram rail_urban rail rail_electric ship"/>
    <edge id="-160095000#10" from="1728838693" to="1721697253" priority="4" type="highway.residential" numLanes="1" speed="13.89" disallow="tram rail_urban rail rail_electric ship"/>
    <edge id="-160095000#11" from="1721697218" to="1728838693" priority="4" type="highway.residential" numLanes="1" speed="13.89" disallow="tram rail_urban rail rail_electric ship"/>
    <edge id="-160095000#12" from="5388446824" to="1721697218" priority="4" type="highway.residential" numLanes="1" speed="13.89" disallow="tram rail_urban rail rail_electric ship"/>
    <edge id="-160095000#13" from="3074414471" to="5388446824" priority="4" type="highway.residential" numLanes="1" speed="13.89" disallow="tram rail_urban rail rail_electric ship"/>
    <edge id="-160095000#2" from="5388446754" to="5424067673" priority="4" type="highway.residential" numLanes="1" speed="13.89" disallow="tram rail_urban rail rail_electric ship"/>
    <edge id="-160095000#3" from="1721697318" to="5388446754" priority="4" type="highway.residential" numLanes="1" speed="13.89" disallow="tram rail_urban rail rail_electric ship"/>
    <edge id="-160095000#4" from="3207407222" to="1721697318" priority="4" type="highway.residential" numLanes="1" speed="13.89" disallow="tram rail_urban rail rail_electric ship"/>
    <edge id="-160095000#5" from="1721697299" to="3207407222" priority="4" type="highway.residential" numLanes="1" speed="13.89" disallow="tram rail_urban rail rail_electric ship"/>
    <edge id="-160095000#6" from="1721697281" to="1721697299" priority="4" type="highway.residential" numLanes="1" speed="13.89" disallow="tram rail_urban rail rail_electric ship"/>
    <edge id="-160095000#7" from="1721697267" to="1721697281" priority="4" type="highway.residential" numLanes="1" speed="13.89" disallow="tram rail_urban rail rail_electric ship"/>
    <edge id="-160095000#8" from="1721697258" to="1721697267" priority="4" type="highway.residential" numLanes="1" speed="13.89" disallow="tram rail_urban rail rail_electric ship"/>
    <edge id="-160095000#9" from="1721697253" to="1721697258" priority="4" type="highway.residential" numLanes="1" speed="13.89" disallow="tram rail_urban rail rail_electric ship"/>
    <edge id="-160095007#0" from="1721697339" to="1240618239" priority="6" type="highway.tertiary" numLanes="1" speed="22.22" disallow="tram rail_urban rail rail_electric ship"/>
    <edge id="-160095007#1" from="1721697387" to="1721697339" priority="6" type="highway.tertiary" numLanes="1" speed="22.22" disallow="tram rail_urban rail rail_electric ship"/>
    <edge id="-160095007#10" from="1724995983" to="1724995968" priority="6" type="highway.tertiary" numLanes="1" speed="22.22" disallow="tram rail_urban rail rail_electric ship"/>
    <edge id="-160095007#11" from="1724996057" to="1724995983" priority="6" type="highway.tertiary" numLanes="1" speed="22.22" shape="3230.47,2885.82 3219.03,2855.38 3203.83,2815.85 3187.87,2779.08 3153.23,2736.63 3139.97,2712.67 3126.92,2691.44 3112.62,2677.21 3095.27,2668.78 3090.88,2655.45 3088.14,2645.04 3087.47,2631.17 3085.99,2487.54" disallow="tram rail_urban rail rail_electric ship"/>
    <edge id="-160095007#12" from="1723131763" to="1724996057" priority="6" type="highway.tertiary" numLanes="1" speed="22.22" shape="3540.46,4289.19 3517.76,4243.05 3492.38,4192.90 3489.74,4184.33 3491.15,4157.29 3493.08,4120.25 3490.33,4093.55 3490.24,4062.95 3482.53,4016.63 3468.48,3964.38 3442.75,3920.67 3404.60,3859.69 3400.11,3846.30 3397.81,3812.73 3392.71,3738.09 3389.46,3698.48 3385.82,3622.35 3380.22,3588.39 3363.06,3502.53 3342.91,3352.84 3340.43,3330.72 3333.26,3307.73 3279.21,3178.10 3274.57,3165.60 3271.94,3149.78 3271.30,3079.47 3271.20,3032.39 3269.58,2990.01 3268.50,2976.07 3254.38,2942.54 3230.47,2885.82" disallow="tram rail_urban rail rail_electric ship"/>
    <edge id="-160095007#2" from="1724995910" to="1721697387" priority="6" type="highway.tertiary" numLanes="1" speed="22.22" disallow="tram rail_urban rail rail_electric ship"/>
    <edge id="-160095007#3" from="1724995911" to="1724995910" priority="6" type="highway.tertiary" numLanes="1" speed="22.22" disallow="tram rail_urban rail rail_electric ship"/>
    <edge id="-160095007#4" from="1724995913" to="1724995911" priority="6" type="highway.tertiary" numLanes="1" speed="22.22" disallow="tram rail_urban rail rail_electric ship"/>
    <edge id="-160095007#5" from="1724995924" to="1724995913" priority="6" type="highway.tertiary" numLanes="1" speed="22.22" disallow="tram rail_urban rail rail_electric ship"/>
    <edge id="-160095007#6" from="1724995941" to="1724995924" priority="6" type="highway.tertiary" numLanes="1" speed="22.22" disallow="tram rail_urban rail rail_electric ship"/>
    <edge id="-160095007#7" from="1724995948" to="1724995941" priority="6" type="highway.tertiary" numLanes="1" speed="22.22" disallow="tram rail_urban rail rail_electric ship"/>
    <edge id="-160095007#8" from="1724995958" to="1724995948" priority="6" type="highway.tertiary" numLanes="1" speed="22.22" disallow="tram rail_urban rail rail_electric ship"/>
    <edge id="-160095007#9" from="1724995968" to="1724995958" priority="6" type="highway.tertiary" numLanes="1" speed="22.22" disallow="tram rail_urban rail rail_electric ship"/>
    <edge id="-160095065#0" from="1723131542" to="1721697320" priority="4" type="highway.residential" numLanes="1" speed="13.89" disallow="tram rail_urban rail rail_electric ship"/>
    <edge id="-160095065#1" from="1723131541" to="1723131542" priority="4" type="highway.residential" numLanes="1" speed="13.89" disallow="tram rail_urban rail rail_electric ship"/>
    <edge id="-160095065#2" from="1723131534" to="1723131541" priority="4" type="highway.residential" numLanes="1" speed="13.89" disallow="tram rail_urban rail rail_electric ship"/>
    <edge id="-160095065#3" from="1723131521" to="1723131534" priority="4" type="highway.residential" numLanes="1" speed="13.89" shape="1767.06,1712.75 1772.58,1772.38 1773.07,1800.27" disallow="tram rail_urban rail rail_electric ship"/>
    <edge id="-160095065#4" from="1240618182" to="1723131521" priority="4" type="highway.residential" numLanes="1" speed="13.89" shape="1750.77,1605.65 1764.42,1689.87 1767.06,1712.75" disallow="tram rail_urban rail rail_electric ship"/>
    <edge id="-160095102#0" from="4490134383" to="1721697468" priority="4" type="highway.residential" numLanes="1" speed="13.89" disallow="tram rail_urban rail rail_electric ship"/>
    <edge id="-160095102#1" from="1721697470" to="4490134383" priority="4" type="highway.residential" numLanes="1" speed="13.89" disallow="tram rail_urban rail rail_electric ship"/>
    <edge id="-160095102#2" from="4490137689" to="1721697470" priority="4" type="highway.residential" numLanes="1" speed="13.89" disallow="tram rail_urban rail rail_electric ship"/>
    <edge id="-160095102#3" from="2833180451" to="4490137689" priority="4" type="highway.residential" numLanes="1" speed="13.89" disallow="tram rail_urban rail rail_electric ship"/>
    <edge id="-160095102#4" from="2589999841" to="2833180451" priority="4" type="highway.residential" numLanes="1" speed="13.89" disallow="tram rail_urban rail rail_electric ship"/>
    <edge id="-160095102#5" from="1721697482" to="2589999841" priority="4" type="highway.residential" numLanes="1" speed="13.89" disallow="tram rail_urban rail rail_electric ship"/>
    <edge id="-160095102#6" from="1721697489" to="1721697482" priority="4" type="highway.residential" numLanes="1" speed="13.89" disallow="tram rail_urban rail rail_electric ship"/>
    <edge id="-160095102#7" from="1724995910" to="1721697489" priority="4" type="highway.residential" numLanes="1" speed="13.89" disallow="tram rail_urban rail rail_electric ship"/>
    <edge id="-160201456#0" from="3070820666" to="3070820667" priority="4" type="highway.residential" numLanes="2" speed="13.89" shape="3179.32,951.00 3185.20,918.70 3191.08,886.41" disallow="tram rail_urban rail rail_electric ship"/>
    <edge id="-160201456#1" from="3562650049" to="3070820666" priority="4" type="highway.residential" numLanes="2" speed="13.89" shape="3073.87,1272.39 3109.74,1220.95 3134.73,1187.65 3151.27,1162.86 3161.59,1137.64 3166.88,1115.56 3167.75,1063.88 3168.52,1008.29 3179.32,951.00" disallow="tram rail_urban rail rail_electric ship"/>
    <edge id="-160201456#2" from="5158860383" to="3562650049" priority="4" type="highway.residential" numLanes="2" speed="13.89" shape="3048.59,1368.13 3050.07,1359.13 3059.50,1301.72 3073.87,1272.39" disallow="tram rail_urban rail rail_electric ship"/>
    <edge id="-160201456#3" from="1722654391" to="5158860383" priority="4" type="highway.residential" numLanes="2" speed="13.89" shape="3042.29,1470.22 3041.06,1446.87 3042.59,1404.64 3048.59,1368.13" disallow="tram rail_urban rail rail_electric ship"/>
    <edge id="-160201456#4" from="5149998883" to="1722654391" priority="4" type="highway.residential" numLanes="2" speed="13.89" disallow="tram rail_urban rail rail_electric ship"/>