<?xml version="1.0" encoding="UTF-8"?>

<!-- generated on 10/08/18 14:31:31 by Eclipse SUMO netedit Version 1.0.1
<configuration xmlns:xsi="http://www.w3.org/2001/XMLSchema-instance" xsi:noNamespaceSchemaLocation="http://sumo.dlr.de/xsd/netconvertConfiguration.xsd">

    <input>
        <sumo-net-file value="C:\Anaconda\Find_Effective_CS\Find_Second_CS\data\Simulation\Net.net.xml"/>
    </input>

    <output>
        <output-file value="C:\Anaconda\Find_Effective_CS\Find_Second_CS\data\Simulation\Net.net.xml"/>
    </output>

    <processing>
        <offset.disable-normalization value="true"/>
        <lefthand value="false"/>
    </processing>

    <junctions>
        <no-turnarounds value="true"/>
        <junctions.corner-detail value="0"/>
        <junctions.limit-turn-speed value="-1"/>
        <rectangular-lane-cut value="false"/>
    </junctions>

    <pedestrian>
        <walkingareas value="false"/>
    </pedestrian>

</configuration>
-->

<net version="1.0" xmlns:xsi="http://www.w3.org/2001/XMLSchema-instance" xsi:noNamespaceSchemaLocation="http://sumo.dlr.de/xsd/net_file.xsd">

    <location netOffset="-214826.16,-2545171.72" convBoundary="0.00,0.00,1696.63,1902.30" origBoundary="120.218157,22.990621,120.234651,23.007700" projParameter="+proj=utm +zone=51 +ellps=WGS84 +datum=WGS84 +units=m +no_defs"/>

    <type id="highway.bridleway" priority="1" numLanes="1" speed="2.78" allow="pedestrian" oneway="1" width="2.00"/>
    <type id="highway.bus_guideway" priority="1" numLanes="1" speed="8.33" allow="bus" oneway="1"/>
    <type id="highway.cycleway" priority="1" numLanes="1" speed="5.56" allow="bicycle" oneway="0" width="1.00"/>
    <type id="highway.footway" priority="1" numLanes="1" speed="2.78" allow="pedestrian" oneway="1" width="2.00"/>
    <type id="highway.ford" priority="1" numLanes="1" speed="2.78" allow="army" oneway="0"/>
    <type id="highway.living_street" priority="3" numLanes="1" speed="2.78" disallow="tram rail_urban rail rail_electric ship" oneway="0"/>
    <type id="highway.motorway" priority="13" numLanes="2" speed="44.44" allow="private emergency authority army vip passenger hov taxi bus coach delivery truck trailer motorcycle evehicle custom1 custom2" oneway="1"/>
    <type id="highway.motorway_link" priority="12" numLanes="1" speed="22.22" allow="private emergency authority army vip passenger hov taxi bus coach delivery truck trailer motorcycle evehicle custom1 custom2" oneway="1"/>
    <type id="highway.path" priority="1" numLanes="1" speed="2.78" allow="bicycle pedestrian" oneway="1" width="2.00"/>
    <type id="highway.pedestrian" priority="1" numLanes="1" speed="2.78" allow="pedestrian" oneway="1" width="2.00"/>
    <type id="highway.primary" priority="9" numLanes="2" speed="27.78" disallow="tram rail_urban rail rail_electric ship" oneway="0"/>
    <type id="highway.primary_link" priority="8" numLanes="1" speed="22.22" disallow="tram rail_urban rail rail_electric ship" oneway="0"/>
    <type id="highway.raceway" priority="14" numLanes="2" speed="83.33" allow="vip" oneway="0"/>
    <type id="highway.residential" priority="4" numLanes="1" speed="13.89" disallow="tram rail_urban rail rail_electric ship" oneway="0"/>
    <type id="highway.secondary" priority="7" numLanes="2" speed="27.78" disallow="tram rail_urban rail rail_electric ship" oneway="0"/>
    <type id="highway.secondary_link" priority="6" numLanes="1" speed="22.22" disallow="tram rail_urban rail rail_electric ship" oneway="0"/>
    <type id="highway.service" priority="2" numLanes="1" speed="5.56" allow="delivery bicycle pedestrian" oneway="0"/>
    <type id="highway.services" priority="1" numLanes="1" speed="8.33" disallow="tram rail_urban rail rail_electric ship" oneway="0"/>
    <type id="highway.stairs" priority="1" numLanes="1" speed="1.39" allow="pedestrian" oneway="1" width="2.00"/>
    <type id="highway.step" priority="1" numLanes="1" speed="1.39" allow="pedestrian" oneway="1" width="2.00"/>
    <type id="highway.steps" priority="1" numLanes="1" speed="1.39" allow="pedestrian" oneway="1" width="2.00"/>
    <type id="highway.tertiary" priority="6" numLanes="1" speed="22.22" disallow="tram rail_urban rail rail_electric ship" oneway="0"/>
    <type id="highway.tertiary_link" priority="5" numLanes="1" speed="22.22" disallow="tram rail_urban rail rail_electric ship" oneway="0"/>
    <type id="highway.track" priority="1" numLanes="1" speed="5.56" disallow="tram rail_urban rail rail_electric ship" oneway="0"/>
    <type id="highway.trunk" priority="11" numLanes="2" speed="27.78" disallow="tram rail_urban rail rail_electric bicycle pedestrian ship" oneway="0"/>
    <type id="highway.trunk_link" priority="10" numLanes="1" speed="22.22" disallow="tram rail_urban rail rail_electric bicycle pedestrian ship" oneway="0"/>
    <type id="highway.unclassified" priority="5" numLanes="1" speed="13.89" disallow="tram rail_urban rail rail_electric ship" oneway="0"/>
    <type id="highway.unsurfaced" priority="1" numLanes="1" speed="8.33" disallow="tram rail_urban rail rail_electric ship" oneway="0"/>
    <type id="railway.light_rail" priority="15" numLanes="1" speed="27.78" allow="rail_urban" oneway="1"/>
    <type id="railway.preserved" priority="15" numLanes="1" speed="27.78" allow="rail" oneway="1"/>
    <type id="railway.rail" priority="15" numLanes="1" speed="83.33" allow="rail rail_electric" oneway="1"/>
    <type id="railway.subway" priority="15" numLanes="1" speed="27.78" allow="rail_urban" oneway="1"/>
    <type id="railway.tram" priority="15" numLanes="1" speed="13.89" allow="tram" oneway="1"/>

    <edge id=":1240617660_0" function="internal">
        <lane id=":1240617660_0_0" index="0" allow="delivery bicycle pedestrian" speed="9.73" length="9.50" shape="867.58,331.77 866.65,329.34 865.18,327.75 863.16,327.00 860.59,327.11"/>
    </edge>
    <edge id=":1240617660_1" function="internal">
        <lane id=":1240617660_1_0" index="0" disallow="tram rail_urban rail rail_electric ship" speed="13.89" length="14.74" shape="867.58,331.77 864.32,317.40"/>
    </edge>
    <edge id=":1240617660_2" function="internal">
        <lane id=":1240617660_2_0" index="0" disallow="tram rail_urban rail rail_electric ship" speed="13.89" length="5.96" shape="867.58,331.77 867.25,327.79 867.90,325.94"/>
    </edge>
    <edge id=":1240617660_3" function="internal">
        <lane id=":1240617660_3_0" index="0" disallow="tram rail_urban rail rail_electric ship" speed="13.89" length="2.34" shape="867.58,331.77 868.09,330.43 868.78,329.86"/>
    </edge>
    <edge id=":1240617660_16" function="internal">
        <lane id=":1240617660_16_0" index="0" speed="13.89" length="8.48" shape="867.90,325.94 868.31,324.74 870.74,322.62 874.56,321.43"/>
    </edge>
    <edge id=":1240617660_17" function="internal">
        <lane id=":1240617660_17_0" index="0" speed="13.89" length="2.34" shape="868.78,329.86 869.65,330.07 870.70,331.06"/>
    </edge>
    <edge id=":1240617660_4" function="internal">
        <lane id=":1240617660_4_0" index="0" disallow="tram rail_urban rail rail_electric ship" speed="13.89" length="9.04" shape="875.06,324.59 872.68,325.34 871.16,326.66 870.50,328.57 870.70,331.06"/>
    </edge>
    <edge id=":1240617660_5" function="internal">
        <lane id=":1240617660_5_0" index="0" allow="delivery bicycle pedestrian" speed="9.73" length="14.69" shape="875.06,324.59 860.59,327.11"/>
    </edge>
    <edge id=":1240617660_6" function="internal">
        <lane id=":1240617660_6_0" index="0" disallow="tram rail_urban rail rail_electric ship" speed="13.89" length="14.55" shape="875.06,324.59 871.09,324.67 867.98,323.50 865.72,321.08 864.32,317.40"/>
    </edge>
    <edge id=":1240617660_7" function="internal">
        <lane id=":1240617660_7_0" index="0" disallow="tram rail_urban rail rail_electric ship" speed="13.89" length="4.67" shape="875.06,324.59 873.75,323.99 873.23,323.27 873.50,322.41 874.56,321.43"/>
    </edge>
    <edge id=":1240617660_8" function="internal">
        <lane id=":1240617660_8_0" index="0" disallow="tram rail_urban rail rail_electric ship" speed="13.89" length="9.61" shape="867.44,316.70 868.37,319.12 869.86,320.72 871.92,321.49 874.56,321.43"/>
    </edge>
    <edge id=":1240617660_9" function="internal">
        <lane id=":1240617660_9_0" index="0" disallow="tram rail_urban rail rail_electric ship" speed="13.89" length="14.73" shape="867.44,316.70 870.70,331.06"/>
    </edge>
    <edge id=":1240617660_10" function="internal">
        <lane id=":1240617660_10_0" index="0" allow="delivery bicycle pedestrian" speed="9.73" length="5.92" shape="867.44,316.70 867.75,320.63 867.12,322.50"/>
    </edge>
    <edge id=":1240617660_11" function="internal">
        <lane id=":1240617660_11_0" index="0" disallow="tram rail_urban rail rail_electric ship" speed="13.89" length="2.34" shape="867.44,316.70 866.93,318.05 866.23,318.61"/>
    </edge>
    <edge id=":1240617660_18" function="internal">
        <lane id=":1240617660_18_0" index="0" speed="9.73" length="8.41" shape="867.12,322.50 866.72,323.68 864.33,325.84 860.59,327.11"/>
    </edge>
    <edge id=":1240617660_19" function="internal">
        <lane id=":1240617660_19_0" index="0" speed="13.89" length="2.34" shape="866.23,318.61 865.37,318.40 864.32,317.40"/>
    </edge>
    <edge id=":1240617660_12" function="internal">
        <lane id=":1240617660_12_0" index="0" disallow="tram rail_urban rail rail_electric ship" speed="9.73" length="9.03" shape="860.00,323.97 862.36,323.17 863.86,321.80 864.52,319.88 864.32,317.40"/>
    </edge>
    <edge id=":1240617660_13" function="internal">
        <lane id=":1240617660_13_0" index="0" disallow="tram rail_urban rail rail_electric ship" speed="9.73" length="14.77" shape="860.00,323.97 874.56,321.43"/>
    </edge>
    <edge id=":1240617660_14" function="internal">
        <lane id=":1240617660_14_0" index="0" disallow="tram rail_urban rail rail_electric ship" speed="9.73" length="14.51" shape="860.00,323.97 863.94,323.80 867.03,324.92 869.28,327.35 870.70,331.06"/>
    </edge>
    <edge id=":1240617660_15" function="internal">
        <lane id=":1240617660_15_0" index="0" allow="delivery bicycle pedestrian" speed="5.56" length="4.67" shape="860.00,323.97 861.33,324.53 861.87,325.25 861.63,326.11 860.59,327.11"/>
    </edge>
    <edge id=":1240617698_0" function="internal">
        <lane id=":1240617698_0_0" index="0" disallow="tram rail_urban rail rail_electric ship" speed="22.22" length="9.39" shape="619.65,572.93 620.47,582.28"/>
    </edge>
    <edge id=":1240617698_1" function="internal">
        <lane id=":1240617698_1_0" index="0" disallow="tram rail_urban rail rail_electric ship" speed="15.27" length="7.75" shape="619.65,572.93 619.69,575.69 619.27,577.70 618.41,578.97 617.10,579.49"/>
    </edge>
    <edge id=":1240617698_2" function="internal">
        <lane id=":1240617698_2_0" index="0" disallow="tram rail_urban rail rail_electric ship" speed="15.27" length="7.76" shape="616.80,576.30 618.19,576.56 619.26,577.65 620.03,579.56 620.47,582.28"/>
    </edge>
    <edge id=":1240617698_3" function="internal">
        <lane id=":1240617698_3_0" index="0" disallow="tram rail_urban rail rail_electric ship" speed="8.33" length="4.67" shape="616.80,576.30 618.07,576.98 618.54,577.74 618.22,578.58 617.10,579.49"/>
    </edge>
    <edge id=":1240617801_0" function="internal">
        <lane id=":1240617801_0_0" index="0" disallow="tram rail_urban rail rail_electric ship" speed="25.00" length="9.03" shape="677.38,1111.05 674.98,1111.66 673.36,1112.90 672.52,1114.76 672.47,1117.24"/>
    </edge>
    <edge id=":1240617801_1" function="internal">
        <lane id=":1240617801_1_0" index="0" disallow="tram rail_urban rail rail_electric ship" speed="27.78" length="11.34" shape="677.38,1111.05 666.07,1112.19"/>
        <lane id=":1240617801_1_1" index="1" disallow="tram rail_urban rail rail_electric ship" speed="27.78" length="11.34" shape="677.04,1107.87 665.78,1109.01"/>
    </edge>
    <edge id=":1240617801_3" function="internal">
        <lane id=":1240617801_3_0" index="0" disallow="tram rail_urban rail rail_electric ship" speed="22.22" length="14.47" shape="670.69,1102.87 672.47,1117.24"/>
    </edge>
    <edge id=":1240617801_4" function="internal">
        <lane id=":1240617801_4_0" index="0" disallow="tram rail_urban rail rail_electric ship" speed="25.00" length="9.03" shape="670.69,1102.87 670.65,1105.36 669.82,1107.21 668.19,1108.43 665.78,1109.01"/>
    </edge>
    <edge id=":1240617955_0" function="internal">
        <lane id=":1240617955_0_0" index="0" disallow="tram rail_urban rail rail_electric ship" speed="22.22" length="13.96" shape="655.63,1100.32 654.26,1086.43"/>
    </edge>
    <edge id=":1240617955_1" function="internal">
        <lane id=":1240617955_1_0" index="0" disallow="tram rail_urban rail rail_electric ship" speed="25.00" length="9.03" shape="655.63,1100.32 655.79,1097.84 656.70,1096.03 658.38,1094.88 660.81,1094.40"/>
    </edge>
    <edge id=":1240617955_2" function="internal">
        <lane id=":1240617955_2_0" index="0" disallow="tram rail_urban rail rail_electric ship" speed="25.00" length="8.63" shape="649.25,1092.07 651.67,1091.51 653.31,1090.38 654.17,1088.69 654.26,1086.43"/>
    </edge>
    <edge id=":1240617955_3" function="internal">
        <lane id=":1240617955_3_0" index="0" disallow="tram rail_urban rail rail_electric ship" speed="27.78" length="11.35" shape="649.25,1092.07 660.64,1091.20"/>
        <lane id=":1240617955_3_1" index="1" disallow="tram rail_urban rail rail_electric ship" speed="27.78" length="11.35" shape="649.57,1095.26 660.81,1094.40"/>
    </edge>
    <edge id=":1240618052_0" function="internal">
        <lane id=":1240618052_0_0" index="0" disallow="tram rail_urban rail rail_electric ship" speed="13.89" length="4.67" shape="1053.44,863.27 1054.66,864.05 1055.07,864.84 1054.68,865.65 1053.50,866.47"/>
    </edge>
    <edge id=":1240618060_0" function="internal">
        <lane id=":1240618060_0_0" index="0" disallow="tram rail_urban rail rail_electric ship" speed="25.00" length="8.88" shape="668.65,1085.39 669.23,1087.70 670.45,1089.26 672.31,1090.07 674.80,1090.15"/>
    </edge>
    <edge id=":1240618060_1" function="internal">
        <lane id=":1240618060_1_0" index="0" disallow="tram rail_urban rail rail_electric ship" speed="22.22" length="14.21" shape="668.65,1085.39 670.26,1099.52"/>
    </edge>
    <edge id=":1240618060_2" function="internal">
        <lane id=":1240618060_2_0" index="0" disallow="tram rail_urban rail rail_electric ship" speed="27.78" length="11.41" shape="663.51,1091.05 674.80,1090.15"/>
        <lane id=":1240618060_2_1" index="1" disallow="tram rail_urban rail rail_electric ship" speed="27.78" length="11.41" shape="663.68,1094.24 675.14,1093.33"/>
    </edge>
    <edge id=":1240618060_4" function="internal">
        <lane id=":1240618060_4_0" index="0" disallow="tram rail_urban rail rail_electric ship" speed="25.00" length="9.46" shape="663.68,1094.24 666.29,1094.46 668.26,1095.41 669.58,1097.09 670.26,1099.52"/>
    </edge>
    <edge id=":1240618138_0" function="internal">
        <lane id=":1240618138_0_0" index="0" disallow="tram rail_urban rail rail_electric ship" speed="13.89" length="4.67" shape="792.57,0.35 793.08,-0.99 793.78,-1.56 794.64,-1.35 795.69,-0.35"/>
    </edge>
    <edge id=":1240618149_0" function="internal">
        <lane id=":1240618149_0_0" index="0" disallow="tram rail_urban rail rail_electric ship" speed="22.22" length="0.10" shape="693.16,1316.27 693.16,1316.27"/>
    </edge>
    <edge id=":1240618158_0" function="internal">
        <lane id=":1240618158_0_0" index="0" disallow="tram rail_urban rail rail_electric ship" speed="25.00" length="9.03" shape="444.06,1132.86 441.64,1133.44 440.01,1134.65 439.14,1136.49 439.05,1138.97"/>
    </edge>
    <edge id=":1240618158_1" function="internal">
        <lane id=":1240618158_1_0" index="0" disallow="tram rail_urban rail rail_electric ship" speed="27.78" length="11.47" shape="444.06,1132.86 432.64,1133.95"/>
        <lane id=":1240618158_1_1" index="1" disallow="tram rail_urban rail rail_electric ship" speed="27.78" length="11.47" shape="443.76,1129.68 432.33,1130.76"/>
    </edge>
    <edge id=":1240618158_3" function="internal">
        <lane id=":1240618158_3_0" index="0" disallow="tram rail_urban rail rail_electric ship" speed="22.22" length="14.47" shape="437.52,1124.58 439.05,1138.97"/>
        <lane id=":1240618158_3_1" index="1" disallow="tram rail_urban rail rail_electric ship" speed="22.22" length="14.47" shape="434.34,1124.92 435.87,1139.31"/>
    </edge>
    <edge id=":1240618158_5" function="internal">
        <lane id=":1240618158_5_0" index="0" disallow="tram rail_urban rail rail_electric ship" speed="25.00" length="6.80" shape="434.34,1124.92 434.44,1127.38 434.13,1129.18 433.43,1130.30 432.33,1130.76"/>
    </edge>
    <edge id=":1240618163_0" function="internal">
        <lane id=":1240618163_0_0" index="0" speed="18.06" length="5.33" shape="626.70,64.72 628.69,59.78"/>
    </edge>
    <edge id=":1240618182_0" function="internal">
        <lane id=":1240618182_0_0" index="0" disallow="tram rail_urban rail rail_electric ship" speed="13.89" length="9.81" shape="917.44,559.37 916.65,556.86 915.22,555.14 913.16,554.23 910.47,554.13"/>
    </edge>
    <edge id=":1240618182_1" function="internal">
        <lane id=":1240618182_1_0" index="0" disallow="tram rail_urban rail rail_electric ship" speed="13.89" length="14.89" shape="917.44,559.37 914.74,544.72"/>
    </edge>
    <edge id=":1240618182_2" function="internal">
        <lane id=":1240618182_2_0" index="0" disallow="tram rail_urban rail rail_electric ship" speed="13.89" length="14.44" shape="917.44,559.37 917.37,555.38 918.61,552.40 921.17,550.44 925.05,549.49"/>
    </edge>
    <edge id=":1240618182_3" function="internal">
        <lane id=":1240618182_3_0" index="0" disallow="tram rail_urban rail rail_electric ship" speed="13.89" length="4.67" shape="917.44,559.37 918.03,558.06 918.76,557.53 919.61,557.80 920.59,558.86"/>
    </edge>
    <edge id=":1240618182_4" function="internal">
        <lane id=":1240618182_4_0" index="0" disallow="tram rail_urban rail rail_electric ship" speed="13.89" length="9.04" shape="925.36,552.67 922.93,553.27 921.33,554.50 920.55,556.36 920.59,558.86"/>
    </edge>
    <edge id=":1240618182_5" function="internal">
        <lane id=":1240618182_5_0" index="0" disallow="tram rail_urban rail rail_electric ship" speed="13.89" length="14.96" shape="925.36,552.67 910.47,554.13"/>
    </edge>
    <edge id=":1240618182_6" function="internal">
        <lane id=":1240618182_6_0" index="0" disallow="tram rail_urban rail rail_electric ship" speed="13.89" length="6.07" shape="925.36,552.67 921.39,552.50 919.48,551.64"/>
    </edge>
    <edge id=":1240618182_7" function="internal">
        <lane id=":1240618182_7_0" index="0" disallow="tram rail_urban rail rail_electric ship" speed="13.89" length="2.34" shape="925.36,552.67 924.09,551.99 923.61,551.23"/>
    </edge>
    <edge id=":1240618182_16" function="internal">
        <lane id=":1240618182_16_0" index="0" speed="13.89" length="8.73" shape="919.48,551.64 918.30,551.11 916.08,548.52 914.74,544.72"/>
    </edge>
    <edge id=":1240618182_17" function="internal">
        <lane id=":1240618182_17_0" index="0" speed="13.89" length="2.34" shape="923.61,551.23 923.93,550.40 925.05,549.49"/>
    </edge>
    <edge id=":1240618182_8" function="internal">
        <lane id=":1240618182_8_0" index="0" disallow="tram rail_urban rail rail_electric ship" speed="13.89" length="10.02" shape="917.88,544.08 918.79,546.66 920.28,548.42 922.37,549.37 925.05,549.49"/>
    </edge>
    <edge id=":1240618182_9" function="internal">
        <lane id=":1240618182_9_0" index="0" disallow="tram rail_urban rail rail_electric ship" speed="13.89" length="15.03" shape="917.88,544.08 920.59,558.86"/>
    </edge>
    <edge id=":1240618182_10" function="internal">
        <lane id=":1240618182_10_0" index="0" disallow="tram rail_urban rail rail_electric ship" speed="13.89" length="14.61" shape="917.88,544.08 918.12,548.13 916.96,551.16 914.41,553.16 910.47,554.13"/>
    </edge>
    <edge id=":1240618182_11" function="internal">
        <lane id=":1240618182_11_0" index="0" disallow="tram rail_urban rail rail_electric ship" speed="13.89" length="4.67" shape="917.88,544.08 917.33,545.41 916.63,545.97 915.77,545.74 914.74,544.72"/>
    </edge>
    <edge id=":1240618182_12" function="internal">
        <lane id=":1240618182_12_0" index="0" disallow="tram rail_urban rail rail_electric ship" speed="13.89" length="9.04" shape="910.15,550.94 912.60,550.34 914.18,549.11 914.89,547.23 914.74,544.72"/>
    </edge>
    <edge id=":1240618182_13" function="internal">
        <lane id=":1240618182_13_0" index="0" disallow="tram rail_urban rail rail_electric ship" speed="13.89" length="14.96" shape="910.15,550.94 925.05,549.49"/>
    </edge>
    <edge id=":1240618182_14" function="internal">
        <lane id=":1240618182_14_0" index="0" disallow="tram rail_urban rail rail_electric ship" speed="13.89" length="6.15" shape="910.15,550.94 914.19,551.11 916.12,551.97"/>
    </edge>
    <edge id=":1240618182_15" function="internal">
        <lane id=":1240618182_15_0" index="0" disallow="tram rail_urban rail rail_electric ship" speed="13.89" length="2.34" shape="910.15,550.94 911.43,551.62 911.90,552.38"/>
    </edge>
    <edge id=":1240618182_18" function="internal">
        <lane id=":1240618182_18_0" index="0" speed="13.89" length="8.59" shape="916.12,551.97 917.27,552.48 919.41,555.06 920.59,558.86"/>
    </edge>
    <edge id=":1240618182_19" function="internal">
        <lane id=":1240618182_19_0" index="0" speed="13.89" length="2.34" shape="911.90,552.38 911.58,553.22 910.47,554.13"/>
    </edge>
    <edge id=":1240618251_0" function="internal">
        <lane id=":1240618251_0_0" index="0" disallow="tram rail_urban rail rail_electric ship" speed="25.00" length="9.02" shape="657.21,1118.64 656.63,1116.24 655.42,1114.60 653.58,1113.71 651.11,1113.59"/>
    </edge>
    <edge id=":1240618251_1" function="internal">
        <lane id=":1240618251_1_0" index="0" disallow="tram rail_urban rail rail_electric ship" speed="22.22" length="14.41" shape="657.21,1118.64 655.95,1104.29"/>
    </edge>
    <edge id=":1240618251_2" function="internal">
        <lane id=":1240618251_2_0" index="0" disallow="tram rail_urban rail rail_electric ship" speed="27.78" length="11.22" shape="662.29,1112.55 651.11,1113.59"/>
        <lane id=":1240618251_2_1" index="1" disallow="tram rail_urban rail rail_electric ship" speed="27.78" length="11.22" shape="661.99,1109.36 650.82,1110.40"/>
    </edge>
    <edge id=":1240618251_4" function="internal">
        <lane id=":1240618251_4_0" index="0" disallow="tram rail_urban rail rail_electric ship" speed="25.00" length="9.02" shape="661.99,1109.36 659.52,1109.24 657.69,1108.36 656.50,1106.70 655.95,1104.29"/>
    </edge>
    <edge id=":1240618254_0" function="internal">
        <lane id=":1240618254_0_0" index="0" disallow="tram rail_urban rail rail_electric ship" speed="27.78" length="0.10" shape="1035.00,1023.78 1034.92,1023.81"/>
        <lane id=":1240618254_0_1" index="1" disallow="tram rail_urban rail rail_electric ship" speed="27.78" length="0.10" shape="1033.84,1020.80 1033.92,1020.77"/>
    </edge>
    <edge id=":1240618278_0" function="internal">
        <lane id=":1240618278_0_0" index="0" speed="20.84" length="10.16" shape="57.23,1170.95 54.44,1170.86 52.36,1169.90 50.97,1168.07 50.28,1165.37"/>
    </edge>
    <edge id=":1240618341_0" function="internal">
        <lane id=":1240618341_0_0" index="0" disallow="tram rail_urban rail rail_electric ship" speed="15.27" length="9.03" shape="604.86,586.27 604.27,583.86 603.06,582.22 601.22,581.34 598.74,581.23"/>
    </edge>
    <edge id=":1240618341_1" function="internal">
        <lane id=":1240618341_1_0" index="0" disallow="tram rail_urban rail rail_electric ship" speed="22.22" length="13.39" shape="604.86,586.27 603.65,572.93"/>
    </edge>
    <edge id=":1240618341_2" function="internal">
        <lane id=":1240618341_2_0" index="0" disallow="tram rail_urban rail rail_electric ship" speed="15.27" length="11.75" shape="604.86,586.27 604.84,582.40 605.62,579.57 607.22,577.76 609.62,576.98"/>
    </edge>
    <edge id=":1240618341_3" function="internal">
        <lane id=":1240618341_3_0" index="0" disallow="tram rail_urban rail rail_electric ship" speed="8.33" length="11.23" shape="609.92,580.16 598.74,581.23"/>
    </edge>
    <edge id=":1240618341_4" function="internal">
        <lane id=":1240618341_4_0" index="0" disallow="tram rail_urban rail rail_electric ship" speed="15.27" length="10.86" shape="609.92,580.16 607.42,579.91 605.54,578.62 604.28,576.29 603.65,572.93"/>
    </edge>
    <edge id=":1240618341_5" function="internal">
        <lane id=":1240618341_5_0" index="0" disallow="tram rail_urban rail rail_electric ship" speed="8.33" length="4.67" shape="609.92,580.16 608.65,579.48 608.18,578.72 608.50,577.89 609.62,576.98"/>
    </edge>
    <edge id=":1240618341_6" function="internal">
        <lane id=":1240618341_6_0" index="0" disallow="tram rail_urban rail rail_electric ship" speed="15.27" length="8.28" shape="598.44,578.05 600.86,577.52 602.54,576.50 603.47,574.96 603.65,572.93"/>
    </edge>
    <edge id=":1240618341_7" function="internal">
        <lane id=":1240618341_7_0" index="0" disallow="tram rail_urban rail rail_electric ship" speed="8.33" length="11.23" shape="598.44,578.05 609.62,576.98"/>
    </edge>
    <edge id=":1240618341_8" function="internal">
        <lane id=":1240618341_8_0" index="0" disallow="tram rail_urban rail rail_electric ship" speed="8.33" length="4.67" shape="598.44,578.05 599.71,578.73 600.18,579.48 599.86,580.32 598.74,581.23"/>
    </edge>
    <edge id=":1240618352_0" function="internal">
        <lane id=":1240618352_0_0" index="0" disallow="tram rail_urban rail rail_electric ship" speed="27.78" length="0.30" shape="1037.35,999.17 1037.64,999.06"/>
        <lane id=":1240618352_0_1" index="1" disallow="tram rail_urban rail rail_electric ship" speed="27.78" length="0.30" shape="1038.44,1002.18 1038.72,1002.07"/>
    </edge>
    <edge id=":1240618367_0" function="internal">
        <lane id=":1240618367_0_0" index="0" disallow="tram rail_urban rail rail_electric ship" speed="18.06" length="9.04" shape="653.15,873.71 650.68,874.12 649.00,875.22 648.10,877.02 647.99,879.52"/>
    </edge>
    <edge id=":1240618367_1" function="internal">
        <lane id=":1240618367_1_0" index="0" disallow="tram rail_urban rail rail_electric ship" speed="13.89" length="11.33" shape="653.15,873.71 641.84,874.34"/>
    </edge>
    <edge id=":1240618367_2" function="internal">
        <lane id=":1240618367_2_0" index="0" disallow="tram rail_urban rail rail_electric ship" speed="13.89" length="2.34" shape="653.15,873.71 651.94,872.93 651.53,872.14"/>
    </edge>
    <edge id=":1240618367_9" function="internal">
        <lane id=":1240618367_9_0" index="0" speed="13.89" length="2.34" shape="651.53,872.14 651.91,871.34 653.10,870.51"/>
    </edge>
    <edge id=":1240618367_3" function="internal">
        <lane id=":1240618367_3_0" index="0" disallow="tram rail_urban rail rail_electric ship" speed="18.06" length="9.52" shape="646.60,865.05 647.20,867.48 648.48,869.20 650.45,870.21 653.10,870.51"/>
    </edge>
    <edge id=":1240618367_4" function="internal">
        <lane id=":1240618367_4_0" index="0" disallow="tram rail_urban rail rail_electric ship" speed="22.22" length="14.54" shape="646.60,865.05 647.99,879.52"/>
    </edge>
    <edge id=":1240618367_5" function="internal">
        <lane id=":1240618367_5_0" index="0" disallow="tram rail_urban rail rail_electric ship" speed="18.06" length="11.72" shape="646.60,865.05 646.61,868.92 645.81,871.76 644.23,873.56 641.84,874.34"/>
    </edge>
    <edge id=":1240618367_6" function="internal">
        <lane id=":1240618367_6_0" index="0" disallow="tram rail_urban rail rail_electric ship" speed="13.89" length="11.57" shape="641.54,871.15 653.10,870.51"/>
    </edge>
    <edge id=":1240618367_7" function="internal">
        <lane id=":1240618367_7_0" index="0" disallow="tram rail_urban rail rail_electric ship" speed="18.06" length="4.22" shape="641.54,871.15 644.03,871.48 645.37,872.54"/>
    </edge>
    <edge id=":1240618367_8" function="internal">
        <lane id=":1240618367_8_0" index="0" disallow="tram rail_urban rail rail_electric ship" speed="13.89" length="2.34" shape="641.54,871.15 642.81,871.84 643.29,872.60"/>
    </edge>
    <edge id=":1240618367_10" function="internal">
        <lane id=":1240618367_10_0" index="0" speed="18.06" length="7.63" shape="645.37,872.54 645.93,872.98 647.25,875.67 647.99,879.52"/>
    </edge>
    <edge id=":1240618367_11" function="internal">
        <lane id=":1240618367_11_0" index="0" speed="13.89" length="2.34" shape="643.29,872.60 642.96,873.43 641.84,874.34"/>
    </edge>
    <edge id=":1240618440_0" function="internal">
        <lane id=":1240618440_0_0" index="0" disallow="tram rail_urban rail rail_electric ship" speed="31.95" length="15.05" shape="637.60,56.58 642.37,55.33 644.51,55.95 644.02,58.43 640.89,62.77"/>
    </edge>
    <edge id=":1240618508_0" function="internal">
        <lane id=":1240618508_0_0" index="0" disallow="tram rail_urban rail rail_electric ship" speed="22.22" length="9.39" shape="633.65,878.23 632.75,868.88"/>
    </edge>
    <edge id=":1240618508_1" function="internal">