<?xml version="1.0" encoding="UTF-8"?>
<!-- generated on 2018-06-29 20:38:59.322639 by $Id$
  options: -n map.net.xml -e 100 -l -o map.trips.xml
-->
<routes xmlns:xsi="http://www.w3.org/2001/XMLSchema-instance" xsi:noNamespaceSchemaLocation="http://sumo.dlr.de/xsd/routes_file.xsd">
    <trip id="0" depart="0.00" from="319100698#0" to="-108071727#0"/>
    <trip id="1" depart="1.00" from="313194389#2" to="-108071727#0"/>

</routes>
