<?xml version="1.0" encoding="UTF-8"?>

<!-- generated on 2018/6/26 ¤U¤È 03:19:37 by Netedit Version 0.32.0
<?xml version="1.0" encoding="UTF-8"?>

<configuration xmlns:xsi="http://www.w3.org/2001/XMLSchema-instance" xsi:noNamespaceSchemaLocation="http://sumo.dlr.de/xsd/netconvertConfiguration.xsd">

    <input>
        <sumo-net-file value="D:\SumoPractice\RealMap_0626\data\SeparateNet\net.net.xml"/>
    </input>

    <output>
        <output-file value="D:\SumoPractice\RealMap_0626\data\SeparateNet\net.net.xml"/>
        <plain-output-prefix value="D:\SumoPractice\RealMap_0626\data\SeparateNet\node"/>
    </output>

    <processing>
        <no-turnarounds value="true"/>
        <offset.disable-normalization value="true"/>
        <lefthand value="false"/>
        <junctions.corner-detail value="0"/>
        <rectangular-lane-cut value="false"/>
        <walkingareas value="false"/>
    </processing>

</configuration>
-->

<tlLogics version="0.27" xmlns:xsi="http://www.w3.org/2001/XMLSchema-instance" xsi:noNamespaceSchemaLocation="http://sumo.dlr.de/xsd/tllogic_file.xsd">
    <tlLogic id="1240617698" type="static" programID="0" offset="0">
        <phase duration="40" state="GGrr"/>
        <phase duration="5" state="yyrr"/>
        <phase duration="40" state="rrGG"/>
        <phase duration="5" state="rryy"/>
    </tlLogic>
    <tlLogic id="1240617718" type="static" programID="0" offset="0">
        <phase duration="80" state="G"/>
        <phase duration="5" state="y"/>
        <phase duration="5" state="r"/>
    </tlLogic>
    <tlLogic id="1240617801" type="static" programID="0" offset="0">
        <phase duration="39" state="GGGrr"/>
        <phase duration="6" state="yyyrr"/>
        <phase duration="39" state="rrrGG"/>
        <phase duration="6" state="rrryy"/>
    </tlLogic>
    <tlLogic id="1240617931" type="static" programID="0" offset="0">
        <phase duration="80" state="G"/>
        <phase duration="5" state="y"/>
        <phase duration="5" state="r"/>
    </tlLogic>
    <tlLogic id="1240617955" type="static" programID="0" offset="0">
        <phase duration="39" state="GGrrr"/>
        <phase duration="6" state="yyrrr"/>
        <phase duration="39" state="rrGGG"/>
        <phase duration="6" state="rryyy"/>
    </tlLogic>
    <tlLogic id="1240617963" type="static" programID="0" offset="0">
        <phase duration="40" state="GGrr"/>
        <phase duration="5" state="yyrr"/>
        <phase duration="40" state="rrGG"/>
        <phase duration="5" state="rryy"/>
    </tlLogic>
    <tlLogic id="1240618060" type="static" programID="0" offset="0">
        <phase duration="39" state="GGrrr"/>
        <phase duration="6" state="yyrrr"/>
        <phase duration="39" state="rrGGG"/>
        <phase duration="6" state="rryyy"/>
    </tlLogic>
    <tlLogic id="1240618124" type="static" programID="0" offset="0">
        <phase duration="35" state="rrrGGgGgg"/>
        <phase duration="5" state="rrryygygg"/>
        <phase duration="6" state="rrrrrGrGG"/>
        <phase duration="5" state="rrrrryryy"/>
        <phase duration="34" state="GGgGrrrrr"/>
        <phase duration="5" state="yyyyrrrrr"/>
    </tlLogic>
    <tlLogic id="1240618138" type="static" programID="0" offset="0">
        <phase duration="35" state="rrrGGgGgg"/>
        <phase duration="5" state="rrryygygg"/>
        <phase duration="6" state="rrrrrGrGG"/>
        <phase duration="5" state="rrrrryryy"/>
        <phase duration="34" state="GGgGrrrrr"/>
        <phase duration="5" state="yyyyrrrrr"/>
    </tlLogic>
    <tlLogic id="1240618149" type="static" programID="0" offset="0">
        <phase duration="40" state="GGrr"/>
        <phase duration="5" state="yyrr"/>
        <phase duration="40" state="rrGG"/>
        <phase duration="5" state="rryy"/>
    </tlLogic>
    <tlLogic id="1240618158" type="static" programID="0" offset="0">
        <phase duration="39" state="GGGrrr"/>
        <phase duration="6" state="yyyrrr"/>
        <phase duration="39" state="rrrGGG"/>
        <phase duration="6" state="rrryyy"/>
    </tlLogic>
    <tlLogic id="1240618163" type="static" programID="0" offset="0">
        <phase duration="35" state="GggGGgrrr"/>
        <phase duration="5" state="yggyygrrr"/>
        <phase duration="6" state="rGGrrGrrr"/>
        <phase duration="5" state="ryyrryrrr"/>
        <phase duration="34" state="rrrrrrGGG"/>
        <phase duration="5" state="rrrrrryyy"/>
    </tlLogic>
    <tlLogic id="1240618239" type="static" programID="0" offset="0">
        <phase duration="33" state="GGgrrrrGgg"/>
        <phase duration="6" state="yygrrrrygg"/>
        <phase duration="6" state="rrGrrrrrGG"/>
        <phase duration="6" state="rryrrrrryy"/>
        <phase duration="33" state="rrrGGGGrrr"/>
        <phase duration="6" state="rrryyyyrrr"/>
    </tlLogic>
    <tlLogic id="1240618251" type="static" programID="0" offset="0">
        <phase duration="39" state="GGrrr"/>
        <phase duration="6" state="yyrrr"/>
        <phase duration="39" state="rrGGG"/>
        <phase duration="6" state="rryyy"/>
    </tlLogic>
    <tlLogic id="1240618254" type="static" programID="0" offset="0">
        <phase duration="33" state="rrrrGggGGg"/>
        <phase duration="6" state="rrrryggyyg"/>
        <phase duration="6" state="rrrrrGGrrG"/>
        <phase duration="6" state="rrrrryyrry"/>
        <phase duration="33" state="GGGGrrrrrr"/>
        <phase duration="6" state="yyyyrrrrrr"/>
    </tlLogic>
    <tlLogic id="1240618278" type="static" programID="0" offset="0">
        <phase duration="33" state="GGgrrrrGgg"/>
        <phase duration="6" state="yygrrrrygg"/>
        <phase duration="6" state="rrGrrrrrGG"/>
        <phase duration="6" state="rryrrrrryy"/>
        <phase duration="33" state="rrrGGGGrrr"/>
        <phase duration="6" state="rrryyyyrrr"/>
    </tlLogic>
    <tlLogic id="1240618340" type="static" programID="0" offset="0">
        <phase duration="79" state="GG"/>
        <phase duration="6" state="yy"/>
        <phase duration="5" state="rr"/>
    </tlLogic>
    <tlLogic id="1240618341" type="static" programID="0" offset="0">
        <phase duration="35" state="rrrGggGGg"/>
        <phase duration="5" state="rrryggyyg"/>
        <phase duration="6" state="rrrrGGrrG"/>
        <phase duration="5" state="rrrryyrry"/>
        <phase duration="34" state="GGGrrrrrr"/>
        <phase duration="5" state="yyyrrrrrr"/>
    </tlLogic>
    <tlLogic id="1240618352" type="static" programID="0" offset="0">
        <phase duration="33" state="GGgrrrrGgg"/>
        <phase duration="6" state="yygrrrrygg"/>
        <phase duration="6" state="rrGrrrrrGG"/>
        <phase duration="6" state="rryrrrrryy"/>
        <phase duration="33" state="rrrGGGGrrr"/>
        <phase duration="6" state="rrryyyyrrr"/>
    </tlLogic>
    <tlLogic id="1240618361" type="static" programID="0" offset="0">
        <phase duration="39" state="GGGrrr"/>
        <phase duration="6" state="yyyrrr"/>
        <phase duration="39" state="rrrGGG"/>
        <phase duration="6" state="rrryyy"/>
    </tlLogic>
    <tlLogic id="1240618367" type="static" programID="0" offset="0">
        <phase duration="35" state="GGgrrrGgg"/>
        <phase duration="5" state="yygrrrygg"/>
        <phase duration="6" state="rrGrrrrGG"/>
        <phase duration="5" state="rryrrrryy"/>
        <phase duration="34" state="rrrGGGrrr"/>
        <phase duration="5" state="rrryyyrrr"/>
    </tlLogic>
    <tlLogic id="1240618440" type="static" programID="0" offset="0">
        <phase duration="35" state="GGgrrrGgg"/>
        <phase duration="5" state="yygrrrygg"/>
        <phase duration="6" state="rrGrrrrGG"/>
        <phase duration="5" state="rryrrrryy"/>
        <phase duration="34" state="rrrGGGrrr"/>
        <phase duration="5" state="rrryyyrrr"/>
    </tlLogic>
    <tlLogic id="1240618456" type="static" programID="0" offset="0">
        <phase duration="39" state="GGGrrr"/>
        <phase duration="6" state="yyyrrr"/>
        <phase duration="39" state="rrrGGG"/>
        <phase duration="6" state="rrryyy"/>
    </tlLogic>
    <tlLogic id="1240618480" type="static" programID="0" offset="0">
        <phase duration="35" state="rrrGGgGgg"/>
        <phase duration="5" state="rrryygygg"/>
        <phase duration="6" state="rrrrrGrGG"/>
        <phase duration="5" state="rrrrryryy"/>
        <phase duration="34" state="GGgGrrrrr"/>
        <phase duration="5" state="yyyyrrrrr"/>
    </tlLogic>
    <tlLogic id="1240618493" type="static" programID="0" offset="0">
        <phase duration="39" state="GGGrrr"/>
        <phase duration="6" state="yyyrrr"/>
        <phase duration="39" state="rrrGGG"/>
        <phase duration="6" state="rrryyy"/>
    </tlLogic>
    <tlLogic id="1240618508" type="static" programID="0" offset="0">
        <phase duration="40" state="GGrr"/>
        <phase duration="5" state="yyrr"/>
        <phase duration="40" state="rrGG"/>
        <phase duration="5" state="rryy"/>
    </tlLogic>
    <tlLogic id="1268711590" type="static" programID="0" offset="0">
        <phase duration="78" state="GGgGgg"/>
        <phase duration="3" state="yygygg"/>
        <phase duration="6" state="rrGrGG"/>
        <phase duration="3" state="rryryy"/>
    </tlLogic>
    <tlLogic id="1268711642" type="static" programID="0" offset="0">
        <phase duration="82" state="GgGg"/>
        <phase duration="3" state="yyyy"/>
        <phase duration="5" state="rrrr"/>
    </tlLogic>
    <tlLogic id="1650294414" type="static" programID="0" offset="0">
        <phase duration="82" state="GgGg"/>
        <phase duration="3" state="yyyy"/>
        <phase duration="5" state="rrrr"/>
    </tlLogic>
    <tlLogic id="1650294416" type="static" programID="0" offset="0">
        <phase duration="33" state="rrrrGGggGGGg"/>
        <phase duration="6" state="rrrryyggyyyg"/>
        <phase duration="6" state="rrrrrrGGrrrG"/>
        <phase duration="6" state="rrrrrryyrrry"/>
        <phase duration="33" state="GGGGrrrrrrrr"/>
        <phase duration="6" state="yyyyrrrrrrrr"/>
    </tlLogic>
    <tlLogic id="1650294432" type="static" programID="0" offset="0">
        <phase duration="27" state="rrrrGGGggrrrrGGGgg"/>
        <phase duration="6" state="rrrryyyggrrrryyygg"/>
        <phase duration="6" state="rrrrrrrGGrrrrrrrGG"/>
        <phase duration="6" state="rrrrrrryyrrrrrrryy"/>
        <phase duration="27" state="GGggrrrrrGGggrrrrr"/>
        <phase duration="6" state="yyggrrrrryyggrrrrr"/>
        <phase duration="6" state="rrGGrrrrrrrGGrrrrr"/>
        <phase duration="6" state="rryyrrrrrrryyrrrrr"/>
    </tlLogic>
    <tlLogic id="1650294438" type="static" programID="0" offset="0">
        <phase duration="39" state="GGgGr"/>
        <phase duration="6" state="yyyyr"/>
        <phase duration="39" state="GGrGg"/>
        <phase duration="6" state="yyryy"/>
    </tlLogic>
    <tlLogic id="1650294459" type="static" programID="0" offset="0">
        <phase duration="80" state="GG"/>
        <phase duration="5" state="yy"/>
        <phase duration="5" state="rr"/>
    </tlLogic>
    <tlLogic id="1650294462" type="static" programID="0" offset="0">
        <phase duration="80" state="GG"/>
        <phase duration="5" state="yy"/>
        <phase duration="5" state="rr"/>
    </tlLogic>
    <tlLogic id="1650294479" type="static" programID="0" offset="0">
        <phase duration="33" state="GGggrrrrGGggrrrr"/>
        <phase duration="3" state="yyggrrrryyggrrrr"/>
        <phase duration="6" state="rrGGrrrrrrGGrrrr"/>
        <phase duration="3" state="rryyrrrrrryyrrrr"/>
        <phase duration="33" state="rrrrGGggrrrrGGgg"/>
        <phase duration="3" state="rrrryyggrrrryygg"/>
        <phase duration="6" state="rrrrrrGGrrrrrrGG"/>
        <phase duration="3" state="rrrrrryyrrrrrryy"/>
    </tlLogic>
    <tlLogic id="1650294482" type="static" programID="0" offset="0">
        <phase duration="82" state="GgGg"/>
        <phase duration="3" state="yyyy"/>
        <phase duration="5" state="rrrr"/>
    </tlLogic>
    <tlLogic id="1650294499" type="static" programID="0" offset="0">
        <phase duration="35" state="rrrrGggGGg"/>
        <phase duration="5" state="rrrryggyyg"/>
        <phase duration="6" state="rrrrrGGrrG"/>
        <phase duration="5" state="rrrrryyrry"/>
        <phase duration="34" state="GGGGrrrrrr"/>
        <phase duration="5" state="yyyyrrrrrr"/>
    </tlLogic>
    <tlLogic id="1650294505" type="static" programID="0" offset="0">
        <phase duration="33" state="GggGGgrrrr"/>
        <phase duration="6" state="yggyygrrrr"/>
        <phase duration="6" state="rGGrrGrrrr"/>
        <phase duration="6" state="ryyrryrrrr"/>
        <phase duration="33" state="rrrrrrGGGG"/>
        <phase duration="6" state="rrrrrryyyy"/>
    </tlLogic>
    <tlLogic id="1650294507" type="static" programID="0" offset="0">
        <phase duration="33" state="GGgrrrrGgg"/>
        <phase duration="6" state="yygrrrrygg"/>
        <phase duration="6" state="rrGrrrrrGG"/>
        <phase duration="6" state="rryrrrrryy"/>
        <phase duration="33" state="rrrGGGGrrr"/>
        <phase duration="6" state="rrryyyyrrr"/>
    </tlLogic>
    <tlLogic id="1650294508" type="static" programID="0" offset="0">
        <phase duration="33" state="rrrrGggGGg"/>
        <phase duration="6" state="rrrryggyyg"/>
        <phase duration="6" state="rrrrrGGrrG"/>
        <phase duration="6" state="rrrrryyrry"/>
        <phase duration="33" state="GGGGrrrrrr"/>
        <phase duration="6" state="yyyyrrrrrr"/>
    </tlLogic>
    <tlLogic id="1650294513" type="static" programID="0" offset="0">
        <phase duration="79" state="GG"/>
        <phase duration="6" state="yy"/>
        <phase duration="5" state="rr"/>
    </tlLogic>
    <tlLogic id="1650294524" type="static" programID="0" offset="0">
        <phase duration="39" state="GGGrrr"/>
        <phase duration="6" state="yyyrrr"/>
        <phase duration="39" state="rrrGGG"/>
        <phase duration="6" state="rrryyy"/>
    </tlLogic>
    <tlLogic id="1650294574" type="static" programID="0" offset="0">
        <phase duration="80" state="G"/>
        <phase duration="5" state="y"/>
        <phase duration="5" state="r"/>
    </tlLogic>
    <tlLogic id="1650294575" type="static" programID="0" offset="0">
        <phase duration="80" state="G"/>
        <phase duration="5" state="y"/>
        <phase duration="5" state="r"/>
    </tlLogic>
    <tlLogic id="1650294577" type="static" programID="0" offset="0">
        <phase duration="80" state="GG"/>
        <phase duration="5" state="yy"/>
        <phase duration="5" state="rr"/>
    </tlLogic>
    <tlLogic id="1650294578" type="static" programID="0" offset="0">
        <phase duration="80" state="GG"/>
        <phase duration="5" state="yy"/>
        <phase duration="5" state="rr"/>
    </tlLogic>
    <tlLogic id="1650294579" type="static" programID="0" offset="0">
        <phase duration="80" state="G"/>
        <phase duration="5" state="y"/>
        <phase duration="5" state="r"/>
    </tlLogic>
    <tlLogic id="1650294580" type="static" programID="0" offset="0">
        <phase duration="80" state="G"/>
        <phase duration="5" state="y"/>
        <phase duration="5" state="r"/>
    </tlLogic>
    <tlLogic id="1650294581" type="static" programID="0" offset="0">
        <phase duration="40" state="GGGrr"/>
        <phase duration="5" state="yyyrr"/>
        <phase duration="40" state="rrrGG"/>
        <phase duration="5" state="rrryy"/>
    </tlLogic>
    <tlLogic id="1650294584" type="static" programID="0" offset="0">
        <phase duration="80" state="GG"/>
        <phase duration="5" state="yy"/>
        <phase duration="5" state="rr"/>
    </tlLogic>
    <tlLogic id="1650294585" type="static" programID="0" offset="0">
        <phase duration="80" state="GG"/>
        <phase duration="5" state="yy"/>
        <phase duration="5" state="rr"/>
    </tlLogic>
    <tlLogic id="1650294588" type="static" programID="0" offset="0">
        <phase duration="82" state="GgGg"/>
        <phase duration="3" state="yyyy"/>
        <phase duration="5" state="rrrr"/>
    </tlLogic>
    <tlLogic id="1650311087" type="static" programID="0" offset="0">
        <phase duration="80" state="GG"/>
        <phase duration="5" state="yy"/>
        <phase duration="5" state="rr"/>
    </tlLogic>
    <tlLogic id="1650311090" type="static" programID="0" offset="0">
        <phase duration="35" state="GggrrrGGg"/>
        <phase duration="5" state="yggrrryyg"/>
        <phase duration="6" state="rGGrrrrrG"/>
        <phase duration="5" state="ryyrrrrry"/>
        <phase duration="34" state="rrrGGgGrr"/>
        <phase duration="5" state="rrryyyyrr"/>
    </tlLogic>
    <tlLogic id="1714206057" type="static" programID="0" offset="0">
        <phase duration="82" state="GgGg"/>
        <phase duration="3" state="yyyy"/>
        <phase duration="5" state="rrrr"/>
    </tlLogic>
    <tlLogic id="1721697108" type="static" programID="0" offset="0">
        <phase duration="35" state="GggrrrGGg"/>
        <phase duration="5" state="yggrrryyg"/>
        <phase duration="6" state="rGGrrrrrG"/>
        <phase duration="5" state="ryyrrrrry"/>
        <phase duration="34" state="rrrGGgGrr"/>
        <phase duration="5" state="rrryyyyrr"/>
    </tlLogic>
    <tlLogic id="1721697109" type="static" programID="0" offset="0">
        <phase duration="35" state="rrrGggGGg"/>
        <phase duration="5" state="rrryggyyg"/>
        <phase duration="6" state="rrrrGGrrG"/>
        <phase duration="5" state="rrrryyrry"/>
        <phase duration="34" state="GGGrrrrrr"/>
        <phase duration="5" state="yyyrrrrrr"/>
    </tlLogic>
    <tlLogic id="1721697115" type="static" programID="0" offset="0">
        <phase duration="39" state="GGGrr"/>
        <phase duration="6" state="yyyrr"/>
        <phase duration="39" state="rrrGG"/>
        <phase duration="6" state="rrryy"/>
    </tlLogic>
    <tlLogic id="1721697136" type="static" programID="0" offset="0">
        <phase duration="80" state="GgGg"/>
        <phase duration="5" state="yyyy"/>
        <phase duration="5" state="rrrr"/>
    </tlLogic>
    <tlLogic id="1721697176" type="static" programID="0" offset="0">
        <phase duration="33" state="rrrrGggGGg"/>
        <phase duration="6" state="rrrryggyyg"/>
        <phase duration="6" state="rrrrrGGrrG"/>
        <phase duration="6" state="rrrrryyrry"/>
        <phase duration="33" state="GGGGrrrrrr"/>
        <phase duration="6" state="yyyyrrrrrr"/>
    </tlLogic>
    <tlLogic id="1721697244" type="static" programID="0" offset="0">
        <phase duration="33" state="rrrrGggGGg"/>
        <phase duration="6" state="rrrryggyyg"/>
        <phase duration="6" state="rrrrrGGrrG"/>
        <phase duration="6" state="rrrrryyrry"/>
        <phase duration="33" state="GGGGrrrrrr"/>
        <phase duration="6" state="yyyyrrrrrr"/>
    </tlLogic>
    <tlLogic id="1721697296" type="static" programID="0" offset="0">
        <phase duration="79" state="GG"/>
        <phase duration="6" state="yy"/>
        <phase duration="5" state="rr"/>
    </tlLogic>
    <tlLogic id="1721697326" type="static" programID="0" offset="0">
        <phase duration="33" state="GggGGgrrrr"/>
        <phase duration="6" state="yggyygrrrr"/>
        <phase duration="6" state="rGGrrGrrrr"/>
        <phase duration="6" state="ryyrryrrrr"/>
        <phase duration="33" state="rrrrrrGGGG"/>
        <phase duration="6" state="rrrrrryyyy"/>
    </tlLogic>
    <tlLogic id="1721697330" type="static" programID="0" offset="0">
        <phase duration="79" state="GG"/>
        <phase duration="6" state="yy"/>
        <phase duration="5" state="rr"/>
    </tlLogic>
    <tlLogic id="1721697336" type="static" programID="0" offset="0">
        <phase duration="79" state="GG"/>
        <phase duration="6" state="yy"/>
        <phase duration="5" state="rr"/>
    </tlLogic>
    <tlLogic id="1721697339" type="static" programID="0" offset="0">
        <phase duration="33" state="GGgrrrrGgg"/>
        <phase duration="6" state="yygrrrrygg"/>
        <phase duration="6" state="rrGrrrrrGG"/>
        <phase duration="6" state="rryrrrrryy"/>
        <phase duration="33" state="rrrGGGGrrr"/>
        <phase duration="6" state="rrryyyyrrr"/>
    </tlLogic>
    <tlLogic id="1721697343" type="static" programID="0" offset="0">
        <phase duration="39" state="GGGrr"/>
        <phase duration="6" state="yyyrr"/>
        <phase duration="39" state="rrrGG"/>
        <phase duration="6" state="rrryy"/>
    </tlLogic>
    <tlLogic id="1721697345" type="static" programID="0" offset="0">
        <phase duration="33" state="GggGGgrrrr"/>
        <phase duration="6" state="yggyygrrrr"/>
        <phase duration="6" state="rGGrrGrrrr"/>
        <phase duration="6" state="ryyrryrrrr"/>
        <phase duration="33" state="rrrrrrGGGG"/>
        <phase duration="6" state="rrrrrryyyy"/>
    </tlLogic>
    <tlLogic id="1721697349" type="static" programID="0" offset="0">
        <phase duration="39" state="GGGrr"/>
        <phase duration="6" state="yyyrr"/>
        <phase duration="39" state="rrrGG"/>
        <phase duration="6" state="rrryy"/>
    </tlLogic>
    <tlLogic id="1721697409" type="static" programID="0" offset="0">
        <phase duration="79" state="GG"/>
        <phase duration="6" state="yy"/>
        <phase duration="5" state="rr"/>
    </tlLogic>
    <tlLogic id="1721697438" type="static" programID="0" offset="0">
        <phase duration="79" state="GG"/>
        <phase duration="6" state="yy"/>
        <phase duration="5" state="rr"/>
    </tlLogic>
    <tlLogic id="1721697468" type="static" programID="0" offset="0">
        <phase duration="39" state="GgGrr"/>
        <phase duration="6" state="yyyrr"/>
        <phase duration="39" state="rrGGG"/>
        <phase duration="6" state="rryyy"/>
    </tlLogic>
    <tlLogic id="1721697576" type="static" programID="0" offset="0">
        <phase duration="33" state="GGgrrrrGgg"/>
        <phase duration="6" state="yygrrrrygg"/>
        <phase duration="6" state="rrGrrrrrGG"/>
        <phase duration="6" state="rryrrrrryy"/>
        <phase duration="33" state="rrrGGGGrrr"/>
        <phase duration="6" state="rrryyyyrrr"/>
    </tlLogic>
    <tlLogic id="1721697578" type="static" programID="0" offset="0">
        <phase duration="33" state="rrrrGggGGg"/>
        <phase duration="6" state="rrrryggyyg"/>
        <phase duration="6" state="rrrrrGGrrG"/>
        <phase duration="6" state="rrrrryyrry"/>
        <phase duration="33" state="GGGGrrrrrr"/>
        <phase duration="6" state="yyyyrrrrrr"/>
    </tlLogic>
    <tlLogic id="1721697615" type="static" programID="0" offset="0">
        <phase duration="79" state="GG"/>
        <phase duration="6" state="yy"/>
        <phase duration="5" state="rr"/>
    </tlLogic>
    <tlLogic id="1721697618" type="static" programID="0" offset="0">
        <phase duration="79" state="GG"/>
        <phase duration="6" state="yy"/>
        <phase duration="5" state="rr"/>
    </tlLogic>
    <tlLogic id="1721697715" type="static" programID="0" offset="0">
        <phase duration="79" state="GG"/>
        <phase duration="6" state="yy"/>
        <phase duration="5" state="rr"/>
    </tlLogic>
    <tlLogic id="1723131425" type="static" programID="0" offset="0">
        <phase duration="80" state="G"/>
        <phase duration="5" state="y"/>
        <phase duration="5" state="r"/>
    </tlLogic>
    <tlLogic id="1723131428" type="static" programID="0" offset="0">
        <phase duration="80" state="G"/>
        <phase duration="5" state="y"/>
        <phase duration="5" state="r"/>
    </tlLogic>
    <tlLogic id="1723131493" type="static" programID="0" offset="0">
        <phase duration="80" state="G"/>
        <phase duration="5" state="y"/>
        <phase duration="5" state="r"/>
    </tlLogic>
    <tlLogic id="1723635563" type="static" programID="0" offset="0">
        <phase duration="38" state="GggrrrGGg"/>
        <phase duration="3" state="yggrrryyg"/>
        <phase duration="6" state="rGGrrrrrG"/>
        <phase duration="3" state="ryyrrrrry"/>
        <phase duration="37" state="rrrGGgGrr"/>
        <phase duration="3" state="rrryyyyrr"/>
    </tlLogic>
    <tlLogic id="1723635569" type="static" programID="0" offset="0">
        <phase duration="38" state="GggrrrGGg"/>
        <phase duration="3" state="yggrrryyg"/>
        <phase duration="6" state="rGGrrrrrG"/>
        <phase duration="3" state="ryyrrrrry"/>
        <phase duration="37" state="rrrGGgGrr"/>
        <phase duration="3" state="rrryyyyrr"/>
    </tlLogic>
    <tlLogic id="1734864185" type="static" programID="0" offset="0">
        <phase duration="79" state="GG"/>
        <phase duration="6" state="yy"/>
        <phase duration="5" state="rr"/>
    </tlLogic>
    <tlLogic id="2204802289" type="static" programID="0" offset="0">
        <phase duration="39" state="GGGrr"/>
        <phase duration="6" state="yyyrr"/>
        <phase duration="39" state="rrrGG"/>
        <phase duration="6" state="rrryy"/>
    </tlLogic>
    <tlLogic id="2204802293" type="static" programID="0" offset="0">
        <phase duration="39" state="GGGrr"/>
        <phase duration="6" state="yyyrr"/>
        <phase duration="39" state="rrrGG"/>
        <phase duration="6" state="rrryy"/>
    </tlLogic>
    <tlLogic id="2204802343" type="static" programID="0" offset="0">
        <phase duration="35" state="GGgrrrGgg"/>
        <phase duration="5" state="yygrrrygg"/>
        <phase duration="6" state="rrGrrrrGG"/>
        <phase duration="5" state="rryrrrryy"/>
        <phase duration="34" state="rrrGGGrrr"/>
        <phase duration="5" state="rrryyyrrr"/>
    </tlLogic>
    <tlLogic id="2204802392" type="static" programID="0" offset="0">
        <phase duration="39" state="GGrrr"/>
        <phase duration="6" state="yyrrr"/>
        <phase duration="39" state="rrGGG"/>
        <phase duration="6" state="rryyy"/>
    </tlLogic>
    <tlLogic id="2204802398" type="static" programID="0" offset="0">
        <phase duration="33" state="GGgrrrrGgg"/>
        <phase duration="6" state="yygrrrrygg"/>
        <phase duration="6" state="rrGrrrrrGG"/>
        <phase duration="6" state="rryrrrrryy"/>
        <phase duration="33" state="rrrGGGGrrr"/>
        <phase duration="6" state="rrryyyyrrr"/>
    </tlLogic>
    <tlLogic id="256016226" type="static" programID="0" offset="0">
        <phase duration="33" state="GggGGgrrrr"/>
        <phase duration="6" state="yggyygrrrr"/>
        <phase duration="6" state="rGGrrGrrrr"/>
        <phase duration="6" state="ryyrryrrrr"/>
        <phase duration="33" state="rrrrrrGGGG"/>
        <phase duration="6" state="rrrrrryyyy"/>
    </tlLogic>
    <tlLogic id="256016230" type="static" programID="0" offset="0">
        <phase duration="39" state="GGGrrr"/>
        <phase duration="6" state="yyyrrr"/>
        <phase duration="39" state="rrrGGG"/>
        <phase duration="6" state="rrryyy"/>
    </tlLogic>
    <tlLogic id="2577958132" type="static" programID="0" offset="0">
        <phase duration="82" state="GgGg"/>
        <phase duration="3" state="yyyy"/>
        <phase duration="5" state="rrrr"/>
    </tlLogic>
    <tlLogic id="2864278443" type="static" programID="0" offset="0">
        <phase duration="79" state="GG"/>
        <phase duration="6" state="yy"/>
        <phase duration="5" state="rr"/>
    </tlLogic>
    <tlLogic id="2864278458" type="static" programID="0" offset="0">
        <phase duration="79" state="GG"/>
        <phase duration="6" state="yy"/>
        <phase duration="5" state="rr"/>
    </tlLogic>
    <tlLogic id="2864283020" type="static" programID="0" offset="0">
        <phase duration="79" state="GG"/>
        <phase duration="6" state="yy"/>
        <phase duration="5" state="rr"/>
    </tlLogic>
    <tlLogic id="2880982287" type="static" programID="0" offset="0">
        <phase duration="82" state="GgGg"/>
        <phase duration="3" state="yyyy"/>
        <phase duration="5" state="rrrr"/>
    </tlLogic>
    <tlLogic id="296967567" type="static" programID="0" offset="0">
        <phase duration="33" state="rrrrGggGGg"/>
        <phase duration="6" state="rrrryggyyg"/>
        <phase duration="6" state="rrrrrGGrrG"/>
        <phase duration="6" state="rrrrryyrry"/>
        <phase duration="33" state="GGGGrrrrrr"/>
        <phase duration="6" state="yyyyrrrrrr"/>
    </tlLogic>
    <tlLogic id="296972728" type="static" programID="0" offset="0">
        <phase duration="82" state="GgGg"/>
        <phase duration="3" state="yyyy"/>
        <phase duration="5" state="rrrr"/>
    </tlLogic>
    <tlLogic id="3029056649" type="static" programID="0" offset="0">
        <phase duration="39" state="GGGrrr"/>
        <phase duration="6" state="yyyrrr"/>
        <phase duration="39" state="rrrGGG"/>
        <phase duration="6" state="rrryyy"/>
    </tlLogic>
    <tlLogic id="3070820659" type="static" programID="0" offset="0">
        <phase duration="33" state="GGgrrrrGgg"/>
        <phase duration="6" state="yygrrrrygg"/>
        <phase duration="6" state="rrGrrrrrGG"/>
        <phase duration="6" state="rryrrrrryy"/>
        <phase duration="33" state="rrrGGGGrrr"/>
        <phase duration="6" state="rrryyyyrrr"/>
    </tlLogic>