<?xml version="1.0" encoding="UTF-8"?>

<!-- generated on 08/31/18 14:09:44 by SUMO duarouter Version 0.32.0
<?xml version="1.0" encoding="UTF-8"?>

<configuration xmlns:xsi="http://www.w3.org/2001/XMLSchema-instance" xsi:noNamespaceSchemaLocation="http://sumo.dlr.de/xsd/duarouterConfiguration.xsd">

    <input>
        <net-file value="map.net.xml"/>
        <route-files value="map.trips.xml"/>
    </input>

    <output>
        <output-file value="map.rou.xml"/>
        <alternatives-output value="map.rou.alt.xml"/>
    </output>

    <processing>
        <ignore-errors value="true"/>
    </processing>

</configuration>
-->

<routes xmlns:xsi="http://www.w3.org/2001/XMLSchema-instance" xsi:noNamespaceSchemaLocation="http://sumo.dlr.de/xsd/routes_file.xsd">

	<vType id="CarA" accel="2.6" decel="4.5" length="4.0" minGap="2.5"  sigma="0.5" color="0,255,0"   probability="0.6" />
	<vType id="CarB" accel="2.6" decel="4.5"  length="4.0" minGap="2.5"  sigma="0.5" color="255,0,128" probability="0.4"/>
	<vTypeDistribution id="typedist1" vTypes="CarA CarB" />
	
    
    
	<routeDistribution id="routedist1">
		<route id="route1" edges="108071688#0 108071688#1 108071688#2 108071688#3 108071688#4 108071688#5 108071688#6 108071688#7 108071688#8 298600775#0 298600775#1 298600775#2 298600775#3 313194185#11 496257370#0 496257370#1 496257370#2 405115648#0 298982166#4 298982165#0 298982165#1 298982165#2 536831318#0 279049706#4 279049706#5 279049706#6 279049706#7 313194389#1 313194389#2" probability="0.2" />	
		<route id="route2" edges="279049706#0 279049706#1 279049706#2 279049706#3 279049706#4 279049706#5 279049706#6 279049706#7 405115651 38367661#0 38367661#1 38367661#2 38367661#3 " probability="0.2"/>
		<route id="route3" edges="298982166#0 298982166#1 298982166#2 298982166#3 298982166#4 313194389#0 313194389#1 313194389#2 313194389#3 496257369#0 496257369#1 496257369#2 298600774#0 298600774#1 298600774#2 -536831318#4 -536831318#3 -536831318#2 -536831318#1 279049706#4 279049706#5 279049706#6 279049706#7 " probability="0.2"/>
		<route id="route4" edges="313194185#0 313194185#1 313194185#2 313194185#3 313194185#4 313194185#5 313194185#6 313194185#7 313194185#8 313194185#9 313194185#10 313194185#11 496257370#0 496257370#1 496257370#2 405115648#0 298982166#4 298982165#0 298982165#1 298982165#2 536831318#0 536831318#1 536831318#2 536831318#3 536831318#4 298600774#3 298600774#4 298600774#5 298600774#6 298600774#7 " probability="0.3"/>
		<route id="routeA" edges="111343192#0 111343192#1 111343192#2 111343192#3 111343192#4 111343192#5 536831320#0 536831320#1 536831320#2 536831320#3 536831320#4 536831320#5" probability="0.05"/>
		<route id="routeB" edges="111343192#0 111343192#1 111343192#2 111343192#3 111343192#4 111343192#5 536831318#0 536831318#1 536831318#2 536831318#3 536831318#4 298600774#3 298600774#4 298600774#5 298600774#6 298600774#7  " probability="0.025"/>
		<route id="routeC" edges="111343192#0 111343192#1 111343192#2 111343192#3 111343192#4 111343192#5 536831318#0 536831318#1 536831318#2 536831318#3 536831318#4 536831318#5 108071688#6 108071688#7 108071688#8 -298600773#7 -298600773#6 -298600773#5 -298600773#4 -298600773#3 -298600773#2 -298600773#1 -298600773#0   " probability="0.025"/>
    	<route id="routeD" edges="111343192#0 111343192#1 111343192#2 111343192#3 111343192#4 111343192#5 536831318#0 279049706#4 279049706#5 279049706#6 279049706#7 405115651 38367661#0 38367661#1 38367661#2 38367661#3 " probability="0.0"/>
    	<route id="routeE" edges="111343192#0 111343192#1 111343192#2 111343192#3 111343192#4 111343192#5 536831318#0 279049706#4 279049706#5 279049706#6 279049706#7 313194389#1 313194389#2 313194389#3 496257368#0 496257368#1 496257368#2 496257368#3 496257368#4 496257368#5 496257368#6 496257368#7 496257368#8 496257368#9 496257368#10 496257368#11 496257368#12 496257368#13 " probability="0.0"/>
		
		
	</routeDistribution>
	
</routes>
