<?xml version="1.0" encoding="UTF-8"?>

<!-- generated on 2018/6/26 ¤U¤È 03:19:37 by Netedit Version 0.32.0
<?xml version="1.0" encoding="UTF-8"?>

<configuration xmlns:xsi="http://www.w3.org/2001/XMLSchema-instance" xsi:noNamespaceSchemaLocation="http://sumo.dlr.de/xsd/netconvertConfiguration.xsd">

    <input>
        <sumo-net-file value="D:\SumoPractice\RealMap_0626\data\SeparateNet\net.net.xml"/>
    </input>

    <output>
        <output-file value="D:\SumoPractice\RealMap_0626\data\SeparateNet\net.net.xml"/>
        <plain-output-prefix value="D:\SumoPractice\RealMap_0626\data\SeparateNet\node"/>
    </output>

    <processing>
        <no-turnarounds value="true"/>
        <offset.disable-normalization value="true"/>
        <lefthand value="false"/>
        <junctions.corner-detail value="0"/>
        <rectangular-lane-cut value="false"/>
        <walkingareas value="false"/>
    </processing>

</configuration>
-->

<nodes version="0.27" xmlns:xsi="http://www.w3.org/2001/XMLSchema-instance" xsi:noNamespaceSchemaLocation="http://sumo.dlr.de/xsd/nodes_file.xsd">
    <location netOffset="-213993.21,-2544117.86" convBoundary="0.00,0.00,4172.27,4289.19" origBoundary="120.207863,22.972938,120.250665,23.023516" projParameter="+proj=utm +zone=51 +ellps=WGS84 +datum=WGS84 +units=m +no_defs"/>

    <node id="1240617640" x="2028.67" y="1827.90" type="priority"/>
    <node id="1240617660" x="1700.44" y="1378.04" type="priority"/>
    <node id="1240617662" x="3910.83" y="1890.07" type="dead_end"/>
    <node id="1240617667" x="471.70" y="2285.19" type="dead_end"/>
    <node id="1240617698" x="1452.99" y="1631.45" type="traffic_light" tl="1240617698"/>
    <node id="1240617718" x="534.22" y="2548.60" type="traffic_light" tl="1240617718"/>
    <node id="1240617801" x="1504.56" y="2163.92" type="traffic_light" tl="1240617801"/>
    <node id="1240617863" x="1446.01" y="1132.07" type="priority"/>
    <node id="1240617901" x="1801.73" y="2254.16" type="priority"/>
    <node id="1240617919" x="2794.79" y="1909.11" type="priority"/>
    <node id="1240617931" x="531.23" y="2535.48" type="traffic_light" tl="1240617931"/>
    <node id="1240617955" x="1487.99" y="2146.96" type="traffic_light" tl="1240617955"/>
    <node id="1240617960" x="1814.53" y="1184.85" type="priority"/>
    <node id="1240617963" x="1508.54" y="2362.99" type="traffic_light" tl="1240617963"/>
    <node id="1240617981" x="2112.82" y="1956.02" type="priority"/>
    <node id="1240618052" x="1886.42" y="1918.72" type="priority"/>
    <node id="1240618060" x="1502.29" y="2146.20" type="traffic_light" tl="1240618060"/>
    <node id="1240618066" x="1662.28" y="1207.31" type="priority"/>
    <node id="1240618076" x="1910.99" y="1589.99" type="priority"/>
    <node id="1240618078" x="2022.13" y="1842.53" type="priority"/>
    <node id="1240618087" x="465.31" y="2538.91" type="dead_end"/>
    <node id="1240618098" x="482.18" y="2265.54" type="dead_end"/>
    <node id="1240618115" x="1930.50" y="623.87" type="priority"/>
    <node id="1240618124" x="1882.21" y="963.63" type="traffic_light" tl="1240618124"/>
    <node id="1240618138" x="1627.07" y="1053.85" type="traffic_light" tl="1240618138"/>
    <node id="1240618141" x="1259.27" y="489.48" type="dead_end"/>
    <node id="1240618149" x="1526.11" y="2370.12" type="traffic_light" tl="1240618149"/>
    <node id="1240618158" x="1269.64" y="2185.80" type="traffic_light" tl="1240618158"/>
    <node id="1240618163" x="1463.66" y="1114.60" type="traffic_light" tl="1240618163"/>
    <node id="1240618166" x="2039.97" y="1814.79" type="priority"/>
    <node id="1240618182" x="1750.77" y="1605.65" type="priority"/>
    <node id="1240618193" x="1854.61" y="1353.21" type="priority"/>
    <node id="1240618212" x="1659.86" y="240.90" type="priority"/>
    <node id="1240618222" x="1509.62" y="2372.57" type="priority"/>
    <node id="1240618237" x="1547.63" y="2581.06" type="priority"/>
    <node id="1240618239" x="3075.83" y="1894.44" type="traffic_light" tl="1240618239"/>
    <node id="1240618251" x="1489.48" y="2165.34" type="traffic_light" tl="1240618251"/>
    <node id="1240618254" x="1867.37" y="2076.15" type="traffic_light" tl="1240618254"/>
    <node id="1240618259" x="2021.59" y="1570.21" type="priority"/>
    <node id="1240618278" x="883.98" y="2223.59" type="traffic_light" tl="1240618278"/>
    <node id="1240618302" x="1440.10" y="418.96" type="priority"/>
    <node id="1240618338" x="1929.01" y="1167.33" type="priority"/>
    <node id="1240618340" x="485.18" y="2282.29" type="traffic_light" tl="1240618340"/>
    <node id="1240618341" x="1437.10" y="1632.96" type="traffic_light" tl="1240618341"/>
    <node id="1240618352" x="1870.99" y="2054.48" type="traffic_light" tl="1240618352"/>
    <node id="1240618361" x="2529.58" y="1914.32" type="traffic_light" tl="1240618361"/>
    <node id="1240618367" x="1480.21" y="1926.07" type="traffic_light" tl="1240618367"/>
    <node id="1240618440" x="1480.68" y="1108.50" type="traffic_light" tl="1240618440"/>
    <node id="1240618456" x="2527.71" y="1896.08" type="traffic_light" tl="1240618456"/>
    <node id="1240618480" x="1771.17" y="1002.78" type="traffic_light" tl="1240618480"/>
    <node id="1240618493" x="2544.22" y="1912.34" type="traffic_light" tl="1240618493"/>
    <node id="1240618508" x="1466.16" y="1927.40" type="traffic_light" tl="1240618508"/>
    <node id="1240618561" x="1710.85" y="524.15" type="priority"/>
    <node id="1240618572" x="2008.19" y="1938.89" type="priority"/>
    <node id="1240618579" x="1525.03" y="2359.66" type="priority"/>
    <node id="1240618598" x="1465.63" y="1126.37" type="priority"/>
    <node id="1240618664" x="2187.43" y="1540.54" type="priority"/>
    <node id="1268711590" x="825.11" y="1596.07" type="traffic_light" tl="1268711590"/>
    <node id="1268711642" x="444.51" y="1158.25" type="traffic_light" tl="1268711642"/>
    <node id="1327231911" x="1497.41" y="2822.63" type="priority"/>
    <node id="1327232033" x="1521.40" y="2802.31" type="priority"/>
    <node id="1327232061" x="1548.60" y="2593.39" type="priority"/>
    <node id="1649165295" x="544.86" y="1301.33" type="priority"/>
    <node id="1649165543" x="322.21" y="1501.28" type="priority"/>
    <node id="1650294395" x="783.34" y="364.33" type="dead_end"/>
    <node id="1650294396" x="653.05" y="412.56" type="priority"/>
    <node id="1650294405" x="687.46" y="509.77" type="priority"/>
    <node id="1650294407" x="856.36" y="537.93" type="priority"/>
    <node id="1650294408" x="847.37" y="541.13" type="priority"/>
    <node id="1650294410" x="551.26" y="560.07" type="priority"/>
    <node id="1650294412" x="717.80" y="590.36" type="priority"/>
    <node id="1650294414" x="440.04" y="599.38" type="traffic_light" tl="1650294414"/>
    <node id="1650294416" x="879.85" y="627.63" type="traffic_light" tl="1650294416"/>
    <node id="1650294417" x="301.95" y="647.02" type="priority"/>
    <node id="1650294419" x="580.08" y="642.57" type="priority"/>
    <node id="1650294422" x="738.41" y="650.77" type="priority"/>
    <node id="1650294428" x="789.71" y="678.38" type="priority"/>
    <node id="1650294432" x="608.10" y="721.79" type="traffic_light" tl="1650294432"/>
    <node id="1650294434" x="274.06" y="751.08" type="priority"/>
    <node id="1650294438" x="498.33" y="761.92" type="traffic_light" tl="1650294438"/>
    <node id="1650294459" x="984.80" y="924.40" type="traffic_light" tl="1650294459"/>
    <node id="1650294462" x="989.07" y="929.76" type="traffic_light" tl="1650294462"/>
    <node id="1650294465" x="632.60" y="953.84" type="priority"/>
    <node id="1650294466" x="519.49" y="961.70" type="priority"/>
    <node id="1650294467" x="208.57" y="982.57" type="priority"/>
    <node id="1650294479" x="539.28" y="1148.71" type="traffic_light" tl="1650294479"/>
    <node id="1650294482" x="279.65" y="1173.48" type="traffic_light" tl="1650294482"/>
    <node id="1650294487" x="1172.38" y="1222.58" type="priority"/>
    <node id="1650294499" x="1212.16" y="1654.50" type="traffic_light" tl="1650294499"/>
    <node id="1650294505" x="2112.04" y="1970.60" type="traffic_light" tl="1650294505"/>
    <node id="1650294507" x="1987.64" y="2013.66" type="traffic_light" tl="1650294507"/>
    <node id="1650294508" x="1979.74" y="2036.61" type="traffic_light" tl="1650294508"/>
    <node id="1650294513" x="1713.87" y="2130.00" type="traffic_light" tl="1650294513"/>
    <node id="1650294516" x="1917.67" y="2141.84" type="priority"/>
    <node id="1650294524" x="1261.05" y="2186.65" type="traffic_light" tl="1650294524"/>
    <node id="1650294544" x="1798.76" y="2256.27" type="priority"/>
    <node id="1650294547" x="1801.33" y="2257.93" type="priority"/>
    <node id="1650294549" x="1796.56" y="2259.91" type="priority"/>
    <node id="1650294551" x="1800.85" y="2260.01" type="priority"/>
    <node id="1650294558" x="1898.44" y="2263.50" type="priority"/>
    <node id="1650294574" x="1523.57" y="2345.62" type="traffic_light" tl="1650294574"/>
    <node id="1650294575" x="1506.94" y="2348.77" type="traffic_light" tl="1650294575"/>
    <node id="1650294577" x="1290.73" y="2386.50" type="traffic_light" tl="1650294577"/>
    <node id="1650294578" x="1282.25" y="2388.00" type="traffic_light" tl="1650294578"/>
    <node id="1650294579" x="1527.62" y="2384.72" type="traffic_light" tl="1650294579"/>
    <node id="1650294580" x="1511.35" y="2388.04" type="traffic_light" tl="1650294580"/>
    <node id="1650294581" x="1284.40" y="2403.31" type="traffic_light" tl="1650294581"/>
    <node id="1650294582" x="1286.48" y="2415.17" type="priority"/>
    <node id="1650294584" x="1296.25" y="2426.39" type="traffic_light" tl="1650294584"/>
    <node id="1650294585" x="1288.52" y="2427.77" type="traffic_light" tl="1650294585"/>
    <node id="1650294588" x="906.16" y="2455.25" type="traffic_light" tl="1650294588"/>
    <node id="1650294595" x="466.75" y="2549.56" type="dead_end"/>
    <node id="1650311021" x="816.56" y="429.04" type="priority"/>
    <node id="1650311028" x="1189.89" y="514.90" type="priority"/>
    <node id="1650311030" x="1158.98" y="526.20" type="priority"/>
    <node id="1650311033" x="1266.28" y="571.03" type="priority"/>
    <node id="1650311034" x="1217.32" y="590.51" type="priority"/>
    <node id="1650311039" x="1300.37" y="676.95" type="priority"/>
    <node id="1650311040" x="1318.16" y="673.48" type="priority"/>
    <node id="1650311043" x="1235.90" y="673.72" type="priority"/>
    <node id="1650311048" x="912.46" y="696.49" type="priority"/>
    <node id="1650311049" x="904.87" y="699.31" type="priority"/>
    <node id="1650311051" x="914.07" y="701.25" type="priority"/>
    <node id="1650311059" x="1346.13" y="747.91" type="priority"/>
    <node id="1650311067" x="616.58" y="797.26" type="priority"/>
    <node id="1650311087" x="1028.76" y="967.08" type="traffic_light" tl="1650311087"/>
    <node id="1650311090" x="1823.11" y="983.91" type="traffic_light" tl="1650311090"/>
    <node id="1650311094" x="1521.69" y="1092.18" type="priority"/>
    <node id="1650311113" x="553.65" y="1284.35" type="priority"/>
    <node id="1650311125" x="1113.79" y="1532.77" type="priority"/>
    <node id="1650311127" x="1058.53" y="1669.55" type="priority"/>
    <node id="1713837515" x="560.58" y="1476.97" type="priority"/>
    <node id="1714206057" x="39.57" y="1206.97" type="traffic_light" tl="1714206057"/>
    <node id="1714206059" x="0.00" y="1213.72" type="priority"/>
    <node id="1721623883" x="1506.29" y="2178.42" type="priority"/>
    <node id="1721697099" x="1100.25" y="450.82" type="priority"/>
    <node id="1721697103" x="995.47" y="488.24" type="priority"/>
    <node id="1721697105" x="1023.39" y="575.78" type="priority"/>
    <node id="1721697108" x="2327.43" y="806.41" type="traffic_light" tl="1721697108"/>
    <node id="1721697109" x="2353.76" y="801.33" type="traffic_light" tl="1721697109"/>
    <node id="1721697115" x="2397.53" y="845.58" type="traffic_light" tl="1721697115"/>
    <node id="1721697118" x="1982.60" y="926.95" type="priority"/>
    <node id="1721697121" x="1887.91" y="988.43" type="priority"/>
    <node id="1721697126" x="1898.52" y="1034.62" type="priority"/>
    <node id="1721697127" x="1782.78" y="1051.56" type="priority"/>
    <node id="1721697134" x="1904.92" y="1062.44" type="priority"/>
    <node id="1721697136" x="1575.92" y="1073.87" type="traffic_light" tl="1721697136"/>
    <node id="1721697143" x="1791.81" y="1089.47" type="priority"/>
    <node id="1721697148" x="1637.60" y="1100.21" type="priority"/>
    <node id="1721697150" x="1802.64" y="1134.98" type="priority"/>
    <node id="1721697153" x="1652.59" y="1166.31" type="priority"/>
    <node id="1721697160" x="1941.44" y="1221.39" type="priority"/>
    <node id="1721697170" x="1827.48" y="1239.26" type="priority"/>
    <node id="1721697171" x="1830.00" y="1249.83" type="priority"/>
    <node id="1721697174" x="1676.97" y="1274.82" type="priority"/>
    <node id="1721697176" x="2449.21" y="1270.33" type="traffic_light" tl="1721697176"/>
    <node id="1721697178" x="1954.15" y="1276.70" type="priority"/>
    <node id="1721697181" x="1841.16" y="1296.72" type="priority"/>
    <node id="1721697200" x="1687.03" y="1318.50" type="priority"/>
    <node id="1721697212" x="2463.62" y="1389.83" type="priority"/>
    <node id="1721697216" x="1868.62" y="1412.05" type="priority"/>
    <node id="1721697218" x="2324.70" y="1404.65" type="priority"/>
    <node id="1721697232" x="1713.75" y="1436.36" type="priority"/>
    <node id="1721697235" x="1882.61" y="1470.75" type="priority"/>
    <node id="1721697238" x="1725.88" y="1489.54" type="priority"/>
    <node id="1721697244" x="2476.20" y="1488.07" type="traffic_light" tl="1721697244"/>
    <node id="1721697246" x="2425.03" y="1497.37" type="priority"/>
    <node id="1721697248" x="2007.26" y="1507.86" type="priority"/>
    <node id="1721697253" x="2338.94" y="1512.89" type="priority"/>
    <node id="1721697254" x="1896.49" y="1528.03" type="priority"/>
    <node id="1721697255" x="1738.35" y="1545.23" type="priority"/>
    <node id="1721697256" x="2144.36" y="1547.76" type="priority"/>
    <node id="1721697258" x="2346.72" y="1572.86" type="priority"/>
    <node id="1721697259" x="2194.55" y="1600.97" type="priority"/>
    <node id="1721697260" x="1700.12" y="1610.61" type="priority"/>
    <node id="1721697261" x="1685.37" y="1612.05" type="priority"/>
    <node id="1721697262" x="2489.81" y="1603.01" type="priority"/>
    <node id="1721697267" x="2354.18" y="1628.59" type="priority"/>
    <node id="1721697273" x="1906.58" y="1648.99" type="priority"/>
    <node id="1721697275" x="2038.65" y="1644.47" type="priority"/>
    <node id="1721697281" x="2361.66" y="1685.51" type="priority"/>
    <node id="1721697293" x="2207.76" y="1713.33" type="priority"/>
    <node id="1721697296" x="2504.48" y="1720.81" type="traffic_light" tl="1721697296"/>
    <node id="1721697298" x="1898.83" y="1752.66" type="priority"/>
    <node id="1721697299" x="2369.47" y="1744.82" type="priority"/>
    <node id="1721697305" x="2214.64" y="1771.78" type="priority"/>
    <node id="1721697315" x="2518.25" y="1833.60" type="priority"/>
    <node id="1721697318" x="2383.24" y="1849.33" type="priority"/>
    <node id="1721697320" x="1775.47" y="1920.73" type="priority"/>
    <node id="1721697322" x="1717.72" y="1921.78" type="priority"/>
    <node id="1721697324" x="1617.76" y="1923.58" type="priority"/>
    <node id="1721697326" x="2391.39" y="1911.31" type="traffic_light" tl="1721697326"/>
    <node id="1721697330" x="2714.02" y="1908.82" type="traffic_light" tl="1721697330"/>
    <node id="1721697336" x="2882.68" y="1908.22" type="traffic_light" tl="1721697336"/>
    <node id="1721697337" x="2930.80" y="1908.51" type="priority"/>
    <node id="1721697338" x="3024.48" y="1910.30" type="priority"/>
    <node id="1721697339" x="3075.17" y="1915.91" type="traffic_light" tl="1721697339"/>
    <node id="1721697341" x="1976.96" y="1933.87" type="priority"/>
    <node id="1721697343" x="2393.61" y="1928.58" type="traffic_light" tl="1721697343"/>
    <node id="1721697345" x="2233.21" y="1929.64" type="traffic_light" tl="1721697345"/>
    <node id="1721697349" x="2235.47" y="1948.82" type="traffic_light" tl="1721697349"/>
    <node id="1721697360" x="1881.30" y="1962.97" type="priority"/>
    <node id="1721697381" x="2078.47" y="2002.40" type="priority"/>
    <node id="1721697387" x="3077.60" y="2005.56" type="priority"/>
    <node id="1721697393" x="1979.08" y="2040.96" type="priority"/>
    <node id="1721697409" x="2558.60" y="2058.15" type="traffic_light" tl="1721697409"/>
    <node id="1721697438" x="1706.57" y="2113.85" type="traffic_light" tl="1721697438"/>
    <node id="1721697468" x="2569.70" y="2152.87" type="traffic_light" tl="1721697468"/>
    <node id="1721697470" x="2715.96" y="2150.92" type="priority"/>
    <node id="1721697482" x="2934.90" y="2148.58" type="priority"/>
    <node id="1721697489" x="3028.26" y="2150.51" type="priority"/>
    <node id="1721697576" x="2616.45" y="2542.09" type="traffic_light" tl="1721697576"/>
    <node id="1721697578" x="2607.13" y="2544.44" type="traffic_light" tl="1721697578"/>
    <node id="1721697580" x="2695.96" y="2547.98" type="priority"/>
    <node id="1721697588" x="2861.35" y="2555.38" type="priority"/>
    <node id="1721697592" x="2967.09" y="2562.28" type="priority"/>
    <node id="1721697598" x="2173.47" y="2583.28" type="priority"/>
    <node id="1721697615" x="2628.23" y="2637.50" type="traffic_light" tl="1721697615"/>
    <node id="1721697618" x="2618.73" y="2637.68" type="traffic_light" tl="1721697618"/>
    <node id="1721697715" x="2592.06" y="2791.68" type="traffic_light" tl="1721697715"/>
    <node id="1721748936" x="807.07" y="433.85" type="priority"/>
    <node id="1721748940" x="691.63" y="520.25" type="priority"/>
    <node id="1722611173" x="1533.25" y="2439.23" type="priority"/>
    <node id="1722611176" x="1309.93" y="2574.26" type="priority"/>
    <node id="1722654391" x="3042.29" y="1470.22" type="priority"/>
    <node id="1722654538" x="3048.04" y="1705.73" type="priority"/>
    <node id="1722654611" x="3075.55" y="1850.76" type="priority"/>
    <node id="1723131384" x="1973.01" y="643.58" type="priority"/>
    <node id="1723131385" x="1983.83" y="648.40" type="priority"/>
    <node id="1723131393" x="1763.25" y="802.21" type="priority"/>
    <node id="1723131425" x="1385.46" y="905.04" type="traffic_light" tl="1723131425"/>
    <node id="1723131428" x="1402.99" y="900.54" type="traffic_light" tl="1723131428"/>
    <node id="1723131463" x="1794.22" y="965.51" type="priority"/>
    <node id="1723131481" x="784.83" y="1157.94" type="priority"/>
    <node id="1723131486" x="1261.49" y="1186.17" type="priority"/>
    <node id="1723131492" x="932.96" y="1248.30" type="priority"/>
    <node id="1723131493" x="1414.47" y="1380.96" type="traffic_light" tl="1723131493"/>
    <node id="1723131498" x="1196.52" y="1404.90" type="priority"/>
    <node id="1723131500" x="1891.67" y="1508.59" type="priority"/>
    <node id="1723131507" x="2030.73" y="1610.01" type="priority"/>
    <node id="1723131510" x="1906.22" y="1653.84" type="priority"/>
    <node id="1723131515" x="2204.68" y="1687.10" type="priority"/>
    <node id="1723131521" x="1767.06" y="1712.75" type="priority"/>
    <node id="1723131525" x="2210.27" y="1734.67" type="priority"/>
    <node id="1723131534" x="1773.07" y="1800.27" type="priority"/>
    <node id="1723131539" x="2219.58" y="1813.76" type="priority"/>
    <node id="1723131541" x="1774.07" y="1846.59" type="priority"/>
    <node id="1723131542" x="1774.10" y="1851.18" type="priority"/>
    <node id="1723131544" x="1891.37" y="1852.56" type="priority"/>
    <node id="1723131547" x="1734.10" y="1921.48" type="priority"/>
    <node id="1723131548" x="1694.30" y="1922.20" type="priority"/>
    <node id="1723131559" x="1839.30" y="2065.91" type="priority"/>
    <node id="1723131561" x="1759.97" y="2094.33" type="priority"/>
    <node id="1723131763" x="3540.46" y="4289.19" type="priority"/>
    <node id="1723635440" x="1386.88" y="857.42" type="priority"/>
    <node id="1723635450" x="1382.37" y="1144.05" type="priority"/>
    <node id="1723635452" x="1299.00" y="1174.02" type="priority"/>
    <node id="1723635457" x="1403.35" y="1237.67" type="priority"/>
    <node id="1723635465" x="547.73" y="1333.42" type="priority"/>
    <node id="1723635487" x="555.63" y="1421.67" type="priority"/>
    <node id="1723635490" x="1188.93" y="1402.69" type="priority"/>
    <node id="1723635494" x="1159.48" y="1405.21" type="priority"/>
    <node id="1723635507" x="1153.98" y="1562.03" type="right_before_left"/>
    <node id="1723635509" x="1204.15" y="1568.38" type="priority"/>
    <node id="1723635517" x="1151.65" y="1589.97" type="right_before_left"/>
    <node id="1723635520" x="1207.00" y="1599.30" type="priority"/>
    <node id="1723635526" x="690.03" y="1616.35" type="priority"/>
    <node id="1723635528" x="827.31" y="1620.24" type="priority"/>
    <node id="1723635534" x="716.11" y="1637.63" type="priority"/>
    <node id="1723635535" x="828.74" y="1636.02" type="priority"/>
    <node id="1723635544" x="717.85" y="1653.52" type="priority"/>
    <node id="1723635546" x="830.21" y="1652.19" type="priority"/>
    <node id="1723635550" x="719.67" y="1670.13" type="priority"/>
    <node id="1723635551" x="831.59" y="1667.40" type="priority"/>
    <node id="1723635553" x="1120.30" y="1663.50" type="priority"/>
    <node id="1723635559" x="721.43" y="1686.26" type="priority"/>
    <node id="1723635563" x="724.09" y="1710.52" type="traffic_light" tl="1723635563"/>
    <node id="1723635569" x="600.76" y="1734.13" type="traffic_light" tl="1723635569"/>
    <node id="1723635584" x="2582.33" y="2260.62" type="priority"/>
    <node id="1723635599" x="2582.47" y="2357.94" type="priority"/>
    <node id="1723635623" x="2354.88" y="2566.00" type="priority"/>
    <node id="1724995910" x="3079.26" y="2152.20" type="priority"/>
    <node id="1724995911" x="3081.03" y="2187.46" type="priority"/>
    <node id="1724995913" x="3081.66" y="2220.83" type="priority"/>
    <node id="1724995924" x="3082.80" y="2252.00" type="priority"/>
    <node id="1724995941" x="3082.90" y="2279.50" type="priority"/>
    <node id="1724995948" x="3083.61" y="2298.78" type="priority"/>
    <node id="1724995958" x="3083.95" y="2309.31" type="priority"/>
    <node id="1724995968" x="3084.14" y="2338.03" type="priority"/>
    <node id="1724995983" x="3085.99" y="2487.54" type="priority"/>
    <node id="1724996057" x="3230.47" y="2885.82" type="priority"/>
    <node id="1725808437" x="2885.84" y="179.45" type="priority"/>
    <node id="1725808490" x="2596.00" y="390.77" type="priority"/>
    <node id="1725808524" x="3222.81" y="396.17" type="dead_end"/>
    <node id="1725808580" x="2613.54" y="442.28" type="priority"/>
    <node id="1725808688" x="2718.87" y="681.23" type="priority"/>
    <node id="1725808690" x="3231.37" y="660.53" type="priority"/>
    <node id="1725808702" x="2885.12" y="691.12" type="priority"/>
    <node id="1725808706" x="2951.33" y="693.42" type="priority"/>
    <node id="1725808713" x="3012.30" y="693.69" type="priority"/>
    <node id="1725808718" x="3113.16" y="700.31" type="priority"/>
    <node id="1725808721" x="3231.60" y="707.52" type="priority"/>
    <node id="1725808732" x="3358.02" y="708.65" type="priority"/>
    <node id="1725808770" x="2876.82" y="831.93" type="priority"/>
    <node id="1725808771" x="3206.54" y="833.89" type="priority"/>
    <node id="1725808772" x="2933.87" y="841.09" type="priority"/>
    <node id="1725808789" x="3195.90" y="887.28" type="priority"/>
    <node id="1727367569" x="504.01" y="144.45" type="priority"/>
    <node id="1727367637" x="618.01" y="534.45" type="priority"/>
    <node id="1727367638" x="585.66" y="547.39" type="priority"/>
    <node id="1727367651" x="626.25" y="625.05" type="priority"/>
    <node id="1727367664" x="653.07" y="706.20" type="priority"/>
    <node id="1727568976" x="1465.45" y="428.74" type="priority"/>
    <node id="1727569026" x="1295.50" y="602.69" type="priority"/>
    <node id="1727569038" x="1729.25" y="621.56" type="priority"/>
    <node id="1727569064" x="1737.44" y="664.94" type="priority"/>
    <node id="1727569095" x="1745.80" y="709.20" type="priority"/>
    <node id="1727569101" x="928.60" y="744.01" type="priority"/>
    <node id="1727569122" x="1753.07" y="747.96" type="priority"/>
    <node id="1727569222" x="986.75" y="910.47" type="priority"/>
    <node id="1727569241" x="769.47" y="996.86" type="priority"/>
    <node id="1727569262" x="1715.03" y="1021.84" type="priority"/>
    <node id="1728838645" x="2387.69" y="691.57" type="priority"/>
    <node id="1728838658" x="2120.09" y="711.06" type="priority"/>
    <node id="1728838666" x="3171.86" y="704.16" type="priority"/>
    <node id="1728838681" x="2210.66" y="752.71" type="priority"/>
    <node id="1728838691" x="636.85" y="993.65" type="priority"/>
    <node id="1728838693" x="2332.29" y="1462.37" type="priority"/>
    <node id="1728838695" x="2179.76" y="1478.55" type="priority"/>
    <node id="1731541478" x="514.47" y="914.38" type="priority"/>
    <node id="1733836778" x="888.46" y="2270.44" type="priority"/>
    <node id="1733836848" x="1109.89" y="2435.67" type="priority"/>
    <node id="1733836853" x="1110.49" y="2445.22" type="priority"/>
    <node id="1733836900" x="1294.88" y="2487.94" type="priority"/>
    <node id="1733836937" x="913.87" y="2531.28" type="priority"/>
    <node id="1733836972" x="1301.47" y="2567.57" type="priority"/>
    <node id="1733836994" x="919.46" y="2600.78" type="priority"/>
    <node id="1733837158" x="1528.12" y="2714.91" type="priority"/>
    <node id="1734864185" x="3885.78" y="1901.50" type="traffic_light" tl="1734864185"/>
    <node id="1968086083" x="783.04" y="636.04" type="priority"/>
    <node id="1968086088" x="758.68" y="572.79" type="priority"/>
    <node id="1988187208" x="798.53" y="1600.11" type="priority"/>
    <node id="1988187209" x="646.96" y="1622.51" type="priority"/>
    <node id="2094383140" x="1040.93" y="1671.27" type="priority"/>
    <node id="2094383149" x="1093.66" y="2203.12" type="priority"/>
    <node id="2123255274" x="2356.94" y="1933.51" type="priority"/>
    <node id="2123256289" x="2302.11" y="1939.67" type="priority"/>
    <node id="2124937342" x="2109.56" y="1990.97" type="priority"/>
    <node id="2163590102" x="893.84" y="2326.56" type="priority"/>
    <node id="2163590121" x="901.50" y="2406.67" type="priority"/>
    <node id="2204802276" x="2606.75" y="669.69" type="priority"/>
    <node id="2204802285" x="2605.59" y="737.88" type="priority"/>
    <node id="2204802289" x="2396.59" y="760.54" type="traffic_light" tl="2204802289"/>
    <node id="2204802293" x="2388.19" y="761.31" type="traffic_light" tl="2204802293"/>
    <node id="2204802320" x="2434.65" y="784.24" type="priority"/>
    <node id="2204802343" x="2439.04" y="801.61" type="traffic_light" tl="2204802343"/>
    <node id="2204802349" x="2601.37" y="805.95" type="priority"/>
    <node id="2204802358" x="2433.75" y="823.60" type="priority"/>
    <node id="2204802392" x="2407.78" y="844.04" type="traffic_light" tl="2204802392"/>
    <node id="2204802398" x="2461.58" y="1269.03" type="traffic_light" tl="2204802398"/>
    <node id="2205384927" x="2097.90" y="151.48" type="dead_end"/>
    <node id="2205385015" x="2889.13" y="512.31" type="priority"/>
    <node id="2205385018" x="1743.69" y="537.96" type="priority"/>
    <node id="2205385046" x="2800.98" y="686.11" type="priority"/>
    <node id="2205385072" x="3207.85" y="775.17" type="priority"/>
    <node id="2205385078" x="2699.92" y="812.82" type="priority"/>
    <node id="2209139371" x="2369.09" y="603.80" type="priority"/>
    <node id="2209139376" x="2377.12" y="604.88" type="priority"/>
    <node id="2209139384" x="3241.46" y="658.57" type="dead_end"/>
    <node id="2209139390" x="2441.37" y="685.52" type="priority"/>
    <node id="2209139391" x="2846.43" y="688.81" type="priority"/>
    <node id="2209139392" x="2853.60" y="689.24" type="priority"/>
    <node id="2209139413" x="2880.00" y="777.97" type="priority"/>
    <node id="2209139416" x="3214.75" y="792.64" type="priority"/>
    <node id="2239492102" x="2608.93" y="808.45" type="priority"/>
    <node id="2239492107" x="2422.65" y="962.80" type="priority"/>
    <node id="2290335532" x="2608.67" y="539.77" type="priority"/>
    <node id="2290335541" x="2607.54" y="597.85" type="priority"/>
    <node id="2290335546" x="2607.39" y="620.92" type="priority"/>
    <node id="2290335551" x="2607.25" y="623.24" type="priority"/>
    <node id="2290335556" x="2606.34" y="643.07" type="priority"/>
    <node id="2467264692" x="1043.31" y="1236.44" type="priority"/>
    <node id="2469870006" x="2889.27" y="526.14" type="priority"/>
    <node id="2469870024" x="2889.70" y="570.28" type="priority"/>
    <node id="2469870037" x="2889.71" y="610.78" type="priority"/>
    <node id="2469870112" x="3102.74" y="699.63" type="priority"/>
    <node id="2469870115" x="3139.57" y="702.04" type="priority"/>
    <node id="2511603072" x="1222.75" y="626.01" type="priority"/>
    <node id="2511603076" x="1229.21" y="661.42" type="priority"/>
    <node id="256013537" x="1186.43" y="1296.82" type="priority"/>
    <node id="256016208" x="1179.06" y="1217.90" type="priority"/>