<?xml version="1.0" encoding="UTF-8"?>

<!-- generated on 06/29/18 20:30:23 by SUMO netconvert Version 0.32.0
<?xml version="1.0" encoding="UTF-8"?>

<configuration xmlns:xsi="http://www.w3.org/2001/XMLSchema-instance" xsi:noNamespaceSchemaLocation="http://sumo.dlr.de/xsd/netconvertConfiguration.xsd">

    <input>
        <osm-files value="NCKU.osm"/>
    </input>

    <output>
        <output-file value="Net.net.xml"/>
    </output>

    <projection>
        <proj.utm value="true"/>
    </projection>

    <edge_removal>
        <remove-edges.by-vclass value="hov,taxi,bus,delivery,transport,lightrail,cityrail,rail_slow,rail_fast,motorcycle,bicycle,pedestrian"/>
    </edge_removal>

</configuration>
-->

<net version="0.27" xmlns:xsi="http://www.w3.org/2001/XMLSchema-instance" xsi:noNamespaceSchemaLocation="http://sumo.dlr.de/xsd/net_file.xsd">

    <location netOffset="-213993.21,-2544117.86" convBoundary="0.00,0.00,4172.27,4289.19" origBoundary="120.207863,22.972938,120.250665,23.023516" projParameter="+proj=utm +zone=51 +ellps=WGS84 +datum=WGS84 +units=m +no_defs"/>

    <type id="highway.bridleway" priority="1" numLanes="1" speed="2.78" allow="pedestrian" oneway="1" width="2.00"/>
    <type id="highway.bus_guideway" priority="1" numLanes="1" speed="8.33" allow="bus" oneway="1"/>
    <type id="highway.cycleway" priority="1" numLanes="1" speed="5.56" allow="bicycle" oneway="0" width="1.00"/>
    <type id="highway.footway" priority="1" numLanes="1" speed="2.78" allow="pedestrian" oneway="1" width="2.00"/>
    <type id="highway.ford" priority="1" numLanes="1" speed="2.78" allow="army" oneway="0"/>
    <type id="highway.living_street" priority="3" numLanes="1" speed="2.78" disallow="tram rail_urban rail rail_electric ship" oneway="0"/>
    <type id="highway.motorway" priority="13" numLanes="2" speed="44.44" allow="private emergency authority army vip passenger hov taxi bus coach delivery truck trailer motorcycle evehicle custom1 custom2" oneway="1"/>
    <type id="highway.motorway_link" priority="12" numLanes="1" speed="22.22" allow="private emergency authority army vip passenger hov taxi bus coach delivery truck trailer motorcycle evehicle custom1 custom2" oneway="1"/>
    <type id="highway.path" priority="1" numLanes="1" speed="2.78" allow="bicycle pedestrian" oneway="1" width="2.00"/>
    <type id="highway.pedestrian" priority="1" numLanes="1" speed="2.78" allow="pedestrian" oneway="1" width="2.00"/>
    <type id="highway.primary" priority="9" numLanes="2" speed="27.78" disallow="tram rail_urban rail rail_electric ship" oneway="0"/>
    <type id="highway.primary_link" priority="8" numLanes="1" speed="22.22" disallow="tram rail_urban rail rail_electric ship" oneway="0"/>
    <type id="highway.raceway" priority="14" numLanes="2" speed="83.33" allow="vip" oneway="0"/>
    <type id="highway.residential" priority="4" numLanes="1" speed="13.89" disallow="tram rail_urban rail rail_electric ship" oneway="0"/>
    <type id="highway.secondary" priority="7" numLanes="2" speed="27.78" disallow="tram rail_urban rail rail_electric ship" oneway="0"/>
    <type id="highway.secondary_link" priority="6" numLanes="1" speed="22.22" disallow="tram rail_urban rail rail_electric ship" oneway="0"/>
    <type id="highway.service" priority="2" numLanes="1" speed="5.56" allow="delivery bicycle pedestrian" oneway="0"/>
    <type id="highway.services" priority="1" numLanes="1" speed="8.33" disallow="tram rail_urban rail rail_electric ship" oneway="0"/>
    <type id="highway.stairs" priority="1" numLanes="1" speed="1.39" allow="pedestrian" oneway="1" width="2.00"/>
    <type id="highway.step" priority="1" numLanes="1" speed="1.39" allow="pedestrian" oneway="1" width="2.00"/>
    <type id="highway.steps" priority="1" numLanes="1" speed="1.39" allow="pedestrian" oneway="1" width="2.00"/>
    <type id="highway.tertiary" priority="6" numLanes="1" speed="22.22" disallow="tram rail_urban rail rail_electric ship" oneway="0"/>
    <type id="highway.tertiary_link" priority="5" numLanes="1" speed="22.22" disallow="tram rail_urban rail rail_electric ship" oneway="0"/>
    <type id="highway.track" priority="1" numLanes="1" speed="5.56" disallow="tram rail_urban rail rail_electric ship" oneway="0"/>
    <type id="highway.trunk" priority="11" numLanes="2" speed="27.78" disallow="tram rail_urban rail rail_electric bicycle pedestrian ship" oneway="0"/>
    <type id="highway.trunk_link" priority="10" numLanes="1" speed="22.22" disallow="tram rail_urban rail rail_electric bicycle pedestrian ship" oneway="0"/>
    <type id="highway.unclassified" priority="5" numLanes="1" speed="13.89" disallow="tram rail_urban rail rail_electric ship" oneway="0"/>
    <type id="highway.unsurfaced" priority="1" numLanes="1" speed="8.33" disallow="tram rail_urban rail rail_electric ship" oneway="0"/>
    <type id="railway.light_rail" priority="15" numLanes="1" speed="27.78" allow="rail_urban" oneway="1"/>
    <type id="railway.preserved" priority="15" numLanes="1" speed="27.78" allow="rail" oneway="1"/>
    <type id="railway.rail" priority="15" numLanes="1" speed="83.33" allow="rail rail_electric" oneway="1"/>
    <type id="railway.subway" priority="15" numLanes="1" speed="27.78" allow="rail_urban" oneway="1"/>
    <type id="railway.tram" priority="15" numLanes="1" speed="13.89" allow="tram" oneway="1"/>

    <edge id=":1240617640_0" function="internal">
        <lane id=":1240617640_0_0" index="0" disallow="tram rail_urban rail rail_electric ship" speed="13.89" length="0.47" shape="2030.23,1828.61 2030.14,1828.72 2030.08,1828.80 2030.03,1828.88 2029.98,1829.01"/>
    </edge>
    <edge id=":1240617640_1" function="internal">
        <lane id=":1240617640_1_0" index="0" disallow="tram rail_urban rail rail_electric ship" speed="13.89" length="2.41" shape="2030.23,1828.61 2028.79,1829.01 2027.90,1828.78"/>
    </edge>
    <edge id=":1240617640_4" function="internal">
        <lane id=":1240617640_4_0" index="0" speed="13.89" length="2.41" shape="2027.90,1828.78 2027.54,1827.93 2027.73,1826.46"/>
    </edge>
    <edge id=":1240617640_2" function="internal">
        <lane id=":1240617640_2_0" index="0" disallow="tram rail_urban rail rail_electric ship" speed="13.89" length="1.43" shape="2026.96,1827.66 2027.14,1827.27 2027.28,1827.02 2027.45,1826.78 2027.73,1826.46"/>
    </edge>
    <edge id=":1240617640_3" function="internal">
        <lane id=":1240617640_3_0" index="0" disallow="tram rail_urban rail rail_electric ship" speed="13.89" length="2.41" shape="2026.96,1827.66 2028.22,1826.87 2029.14,1826.83"/>
    </edge>
    <edge id=":1240617640_5" function="internal">
        <lane id=":1240617640_5_0" index="0" speed="13.89" length="2.41" shape="2029.14,1826.83 2029.73,1827.54 2029.98,1829.01"/>
    </edge>
    <edge id=":1240617660_0" function="internal">
        <lane id=":1240617660_0_0" index="0" disallow="tram rail_urban rail rail_electric ship" speed="13.89" length="9.53" shape="1699.94,1383.25 1697.83,1373.96"/>
    </edge>
    <edge id=":1240617660_1" function="internal">
        <lane id=":1240617660_1_0" index="0" disallow="tram rail_urban rail rail_electric ship" speed="13.89" length="5.33" shape="1699.94,1383.25 1699.70,1380.31 1700.47,1378.06"/>
    </edge>
    <edge id=":1240617660_2" function="internal">
        <lane id=":1240617660_2_0" index="0" disallow="tram rail_urban rail rail_electric ship" speed="13.89" length="2.41" shape="1699.94,1383.25 1700.46,1381.86 1701.18,1381.27"/>
    </edge>
    <edge id=":1240617660_9" function="internal">
        <lane id=":1240617660_9_0" index="0" speed="13.89" length="5.33" shape="1700.47,1378.06 1702.27,1376.50 1705.08,1375.62"/>
    </edge>
    <edge id=":1240617660_10" function="internal">
        <lane id=":1240617660_10_0" index="0" speed="13.89" length="2.41" shape="1701.18,1381.27 1702.07,1381.49 1703.15,1382.52"/>
    </edge>
    <edge id=":1240617660_3" function="internal">
        <lane id=":1240617660_3_0" index="0" disallow="tram rail_urban rail rail_electric ship" speed="13.89" length="5.08" shape="1705.61,1378.88 1704.26,1379.30 1703.41,1380.04 1703.04,1381.12 1703.15,1382.52"/>
    </edge>
    <edge id=":1240617660_4" function="internal">
        <lane id=":1240617660_4_0" index="0" disallow="tram rail_urban rail rail_electric ship" speed="13.89" length="10.35" shape="1705.61,1378.88 1702.71,1378.96 1700.44,1378.17 1698.82,1376.50 1697.83,1373.96"/>
    </edge>
    <edge id=":1240617660_5" function="internal">
        <lane id=":1240617660_5_0" index="0" disallow="tram rail_urban rail rail_electric ship" speed="13.89" length="4.82" shape="1705.61,1378.88 1704.25,1378.26 1703.71,1377.51 1703.99,1376.63 1705.08,1375.62"/>
    </edge>
    <edge id=":1240617660_6" function="internal">
        <lane id=":1240617660_6_0" index="0" disallow="tram rail_urban rail rail_electric ship" speed="13.89" length="5.27" shape="1701.05,1373.23 1701.55,1374.48 1702.39,1375.30 1703.56,1375.68 1705.08,1375.62"/>
    </edge>
    <edge id=":1240617660_7" function="internal">
        <lane id=":1240617660_7_0" index="0" disallow="tram rail_urban rail rail_electric ship" speed="13.89" length="9.52" shape="1701.05,1373.23 1703.15,1382.52"/>
    </edge>
    <edge id=":1240617660_8" function="internal">
        <lane id=":1240617660_8_0" index="0" disallow="tram rail_urban rail rail_electric ship" speed="13.89" length="2.41" shape="1701.05,1373.23 1700.51,1374.62 1699.80,1375.21"/>
    </edge>
    <edge id=":1240617660_11" function="internal">
        <lane id=":1240617660_11_0" index="0" speed="13.89" length="2.41" shape="1699.80,1375.21 1698.90,1374.98 1697.83,1373.96"/>
    </edge>
    <edge id=":1240617698_0" function="internal">
        <lane id=":1240617698_0_0" index="0" disallow="tram rail_urban rail rail_electric ship" speed="22.22" length="9.50" shape="1452.55,1626.72 1453.43,1636.18"/>
    </edge>
    <edge id=":1240617698_1" function="internal">
        <lane id=":1240617698_1_0" index="0" disallow="tram rail_urban rail rail_electric ship" speed="15.28" length="7.85" shape="1452.55,1626.72 1452.62,1629.53 1452.22,1631.57 1451.37,1632.86 1450.05,1633.39"/>
    </edge>
    <edge id=":1240617698_2" function="internal">
        <lane id=":1240617698_2_0" index="0" disallow="tram rail_urban rail rail_electric ship" speed="15.28" length="7.85" shape="1449.74,1630.10 1451.13,1630.37 1452.21,1631.47 1452.97,1633.41 1453.43,1636.18"/>
    </edge>
    <edge id=":1240617698_3" function="internal">
        <lane id=":1240617698_3_0" index="0" disallow="tram rail_urban rail rail_electric ship" speed="8.33" length="4.82" shape="1449.74,1630.10 1451.05,1630.80 1451.54,1631.59 1451.20,1632.45 1450.05,1633.39"/>
    </edge>
    <edge id=":1240617718_0" function="internal">
        <lane id=":1240617718_0_0" index="0" disallow="tram rail_urban rail rail_electric ship" speed="22.22" length="0.10" shape="534.22,2548.60 534.22,2548.60"/>
    </edge>
    <edge id=":1240617801_0" function="internal">
        <lane id=":1240617801_0_0" index="0" disallow="tram rail_urban rail rail_electric ship" speed="25.00" length="5.01" shape="1507.85,2165.22 1506.52,2165.56 1505.62,2166.25 1505.15,2167.28 1505.12,2168.65"/>
    </edge>
    <edge id=":1240617801_1" function="internal">
        <lane id=":1240617801_1_0" index="0" disallow="tram rail_urban rail rail_electric ship" speed="27.78" length="6.34" shape="1507.85,2165.22 1501.52,2165.86"/>
        <lane id=":1240617801_1_1" index="1" disallow="tram rail_urban rail rail_electric ship" speed="27.78" length="6.34" shape="1507.49,2161.94 1501.21,2162.58"/>
    </edge>
    <edge id=":1240617801_3" function="internal">
        <lane id=":1240617801_3_0" index="0" disallow="tram rail_urban rail rail_electric ship" speed="22.22" length="9.57" shape="1503.95,2159.15 1505.12,2168.65"/>
    </edge>
    <edge id=":1240617801_4" function="internal">
        <lane id=":1240617801_4_0" index="0" disallow="tram rail_urban rail rail_electric ship" speed="25.00" length="5.04" shape="1503.95,2159.15 1503.93,2160.54 1503.46,2161.57 1502.56,2162.25 1501.21,2162.58"/>
    </edge>
    <edge id=":1240617863_0" function="internal">
        <lane id=":1240617863_0_0" index="0" disallow="tram rail_urban rail rail_electric ship" speed="22.22" length="0.30" shape="1445.91,1132.17 1446.12,1131.96"/>
    </edge>
    <edge id=":1240617901_0" function="internal">
        <lane id=":1240617901_0_0" index="0" disallow="tram rail_urban rail rail_electric ship" speed="22.22" length="5.05" shape="1803.88,2253.58 1803.04,2254.83 1802.28,2255.61 1801.69,2256.43 1801.34,2257.83"/>
    </edge>
    <edge id=":1240617901_1" function="internal">
        <lane id=":1240617901_1_0" index="0" disallow="tram rail_urban rail rail_electric ship" speed="22.22" length="2.15" shape="1803.88,2253.58 1802.58,2254.30 1801.92,2254.30"/>
    </edge>
    <edge id=":1240617901_4" function="internal">
        <lane id=":1240617901_4_0" index="0" speed="22.22" length="2.67" shape="1801.92,2254.30 1801.66,2254.30 1801.11,2253.55 1800.94,2252.08"/>
    </edge>
    <edge id=":1240617901_2" function="internal">
        <lane id=":1240617901_2_0" index="0" disallow="tram rail_urban rail rail_electric ship" speed="22.22" length="4.55" shape="1799.03,2256.08 1799.95,2255.19 1800.29,2254.33 1800.47,2253.35 1800.94,2252.08"/>
    </edge>
    <edge id=":1240617901_3" function="internal">
        <lane id=":1240617901_3_0" index="0" disallow="tram rail_urban rail rail_electric ship" speed="22.22" length="1.51" shape="1799.03,2256.08 1800.19,2255.47 1800.39,2255.49"/>
    </edge>
    <edge id=":1240617901_5" function="internal">
        <lane id=":1240617901_5_0" index="0" speed="22.22" length="2.92" shape="1800.39,2255.49 1800.96,2255.56 1801.34,2256.34 1801.34,2257.83"/>
    </edge>
    <edge id=":1240617919_0" function="internal">
        <lane id=":1240617919_0_0" index="0" disallow="tram rail_urban rail rail_electric ship" speed="27.78" length="0.29" shape="2794.95,1910.76 2794.64,1910.76"/>
        <lane id=":1240617919_0_1" index="1" disallow="tram rail_urban rail rail_electric ship" speed="27.78" length="0.29" shape="2794.92,1907.46 2794.65,1907.46"/>
    </edge>
    <edge id=":1240617931_0" function="internal">
        <lane id=":1240617931_0_0" index="0" disallow="tram rail_urban rail rail_electric ship" speed="22.22" length="0.33" shape="531.07,2535.51 531.17,2535.49 531.23,2535.48 531.30,2535.48 531.40,2535.48"/>
    </edge>
    <edge id=":1240617955_0" function="internal">
        <lane id=":1240617955_0_0" index="0" disallow="tram rail_urban rail rail_electric ship" speed="22.22" length="9.57" shape="1488.38,2151.74 1487.43,2142.21"/>
    </edge>
    <edge id=":1240617955_1" function="internal">
        <lane id=":1240617955_1_0" index="0" disallow="tram rail_urban rail rail_electric ship" speed="25.00" length="5.03" shape="1488.38,2151.74 1488.47,2150.35 1488.98,2149.34 1489.91,2148.70 1491.27,2148.43"/>
    </edge>
    <edge id=":1240617955_2" function="internal">
        <lane id=":1240617955_2_0" index="0" disallow="tram rail_urban rail rail_electric ship" speed="25.00" length="5.02" shape="1484.68,2145.63 1486.02,2145.30 1486.93,2144.62 1487.40,2143.59 1487.43,2142.21"/>
    </edge>
    <edge id=":1240617955_3" function="internal">
        <lane id=":1240617955_3_0" index="0" disallow="tram rail_urban rail rail_electric ship" speed="27.78" length="6.35" shape="1484.68,2145.63 1491.09,2145.14"/>
        <lane id=":1240617955_3_1" index="1" disallow="tram rail_urban rail rail_electric ship" speed="27.78" length="6.35" shape="1485.01,2148.91 1491.27,2148.43"/>
    </edge>
    <edge id=":1240617960_0" function="internal">
        <lane id=":1240617960_0_0" index="0" disallow="tram rail_urban rail rail_electric ship" speed="13.89" length="0.10" shape="1812.92,1185.24 1812.92,1185.24"/>
    </edge>
    <edge id=":1240617960_1" function="internal">
        <lane id=":1240617960_1_0" index="0" disallow="tram rail_urban rail rail_electric ship" speed="13.89" length="2.41" shape="1812.92,1185.24 1813.44,1183.84 1814.14,1183.25"/>
    </edge>
    <edge id=":1240617960_4" function="internal">
        <lane id=":1240617960_4_0" index="0" speed="13.89" length="2.41" shape="1814.14,1183.25 1815.04,1183.46 1816.13,1184.47"/>
    </edge>
    <edge id=":1240617960_2" function="internal">
        <lane id=":1240617960_2_0" index="0" disallow="tram rail_urban rail rail_electric ship" speed="13.89" length="0.10" shape="1816.13,1184.47 1816.13,1184.47"/>
    </edge>
    <edge id=":1240617960_3" function="internal">
        <lane id=":1240617960_3_0" index="0" disallow="tram rail_urban rail rail_electric ship" speed="13.89" length="2.41" shape="1816.13,1184.47 1815.62,1185.87 1814.91,1186.46"/>
    </edge>
    <edge id=":1240617960_5" function="internal">
        <lane id=":1240617960_5_0" index="0" speed="13.89" length="2.41" shape="1814.91,1186.46 1814.01,1186.25 1812.92,1185.24"/>
    </edge>
    <edge id=":1240617963_0" function="internal">
        <lane id=":1240617963_0_0" index="0" disallow="tram rail_urban rail rail_electric ship" speed="22.22" length="6.43" shape="1508.90,2366.15 1508.18,2359.76"/>
    </edge>
    <edge id=":1240617963_1" function="internal">
        <lane id=":1240617963_1_0" index="0" disallow="tram rail_urban rail rail_electric ship" speed="22.22" length="5.31" shape="1508.90,2366.15 1508.94,2364.72 1509.43,2363.62 1510.35,2362.82 1511.72,2362.34"/>
    </edge>
    <edge id=":1240617963_2" function="internal">
        <lane id=":1240617963_2_0" index="0" disallow="tram rail_urban rail rail_electric ship" speed="22.22" length="5.25" shape="1505.40,2363.50 1506.75,2363.07 1507.67,2362.31 1508.14,2361.20 1508.18,2359.76"/>
    </edge>
    <edge id=":1240617963_3" function="internal">
        <lane id=":1240617963_3_0" index="0" disallow="tram rail_urban rail rail_electric ship" speed="22.22" length="6.43" shape="1505.40,2363.50 1511.72,2362.34"/>
    </edge>
    <edge id=":1240617981_0" function="internal">
        <lane id=":1240617981_0_0" index="0" disallow="tram rail_urban rail rail_electric ship" speed="13.89" length="7.16" shape="2110.34,1953.87 2112.16,1954.49 2113.44,1955.54 2114.15,1957.03 2114.32,1958.95"/>
    </edge>
    <edge id=":1240617981_1" function="internal">
        <lane id=":1240617981_1_0" index="0" disallow="tram rail_urban rail rail_electric ship" speed="13.89" length="2.83" shape="2110.34,1953.87 2111.40,1954.91 2111.65,1955.80 2111.40,1956.13"/>
    </edge>
    <edge id=":1240617981_4" function="internal">
        <lane id=":1240617981_4_0" index="0" speed="13.89" length="1.99" shape="2111.40,1956.13 2111.09,1956.53 2109.72,1957.11"/>
    </edge>
    <edge id=":1240617981_2" function="internal">
        <lane id=":1240617981_2_0" index="0" disallow="tram rail_urban rail rail_electric ship" speed="13.89" length="2.34" shape="2111.02,1958.77 2110.97,1958.14 2110.73,1957.66 2110.32,1957.31 2109.72,1957.11"/>
    </edge>
    <edge id=":1240617981_3" function="internal">
        <lane id=":1240617981_3_0" index="0" disallow="tram rail_urban rail rail_electric ship" speed="13.89" length="2.15" shape="2111.02,1958.77 2111.91,1957.58 2112.52,1957.32"/>
    </edge>
    <edge id=":1240617981_5" function="internal">
        <lane id=":1240617981_5_0" index="0" speed="13.89" length="2.67" shape="2112.52,1957.32 2112.76,1957.21 2113.56,1957.67 2114.32,1958.95"/>
    </edge>
    <edge id=":1240618052_0" function="internal">
        <lane id=":1240618052_0_0" index="0" disallow="tram rail_urban rail rail_electric ship" speed="13.89" length="5.30" shape="1891.00,1921.16 1889.60,1921.14 1888.54,1921.63 1887.83,1922.61 1887.46,1924.09"/>
    </edge>
    <edge id=":1240618052_1" function="internal">
        <lane id=":1240618052_1_0" index="0" disallow="tram rail_urban rail rail_electric ship" speed="13.89" length="9.81" shape="1891.00,1921.16 1888.12,1920.70 1886.14,1920.47 1884.15,1920.42 1881.24,1920.46"/>
    </edge>
    <edge id=":1240618052_2" function="internal">
        <lane id=":1240618052_2_0" index="0" disallow="tram rail_urban rail rail_electric ship" speed="13.89" length="10.25" shape="1891.00,1921.16 1888.25,1920.32 1886.36,1918.87 1885.31,1916.81 1885.11,1914.14"/>
    </edge>
    <edge id=":1240618052_3" function="internal">
        <lane id=":1240618052_3_0" index="0" disallow="tram rail_urban rail rail_electric ship" speed="13.89" length="4.82" shape="1891.00,1921.16 1889.91,1920.14 1889.64,1919.26 1890.19,1918.51 1891.54,1917.90"/>
    </edge>
    <edge id=":1240618052_4" function="internal">
        <lane id=":1240618052_4_0" index="0" disallow="tram rail_urban rail rail_electric ship" speed="13.89" length="5.27" shape="1888.40,1914.39 1888.51,1915.71 1889.07,1916.74 1890.08,1917.47 1891.54,1917.90"/>
    </edge>
    <edge id=":1240618052_5" function="internal">
        <lane id=":1240618052_5_0" index="0" disallow="tram rail_urban rail rail_electric ship" speed="13.89" length="9.75" shape="1888.40,1914.39 1887.46,1924.09"/>
    </edge>
    <edge id=":1240618052_6" function="internal">
        <lane id=":1240618052_6_0" index="0" disallow="tram rail_urban rail rail_electric ship" speed="13.89" length="5.18" shape="1888.40,1914.39 1887.78,1917.00 1886.38,1918.88 1886.25,1918.95"/>
    </edge>
    <edge id=":1240618052_7" function="internal">
        <lane id=":1240618052_7_0" index="0" disallow="tram rail_urban rail rail_electric ship" speed="13.89" length="2.41" shape="1888.40,1914.39 1887.48,1915.56 1886.63,1915.91"/>
    </edge>
    <edge id=":1240618052_16" function="internal">
        <lane id=":1240618052_16_0" index="0" speed="13.89" length="5.31" shape="1886.25,1918.95 1884.20,1920.04 1881.24,1920.46"/>
    </edge>
    <edge id=":1240618052_17" function="internal">
        <lane id=":1240618052_17_0" index="0" speed="13.89" length="2.41" shape="1886.63,1915.91 1885.84,1915.44 1885.11,1914.14"/>
    </edge>
    <edge id=":1240618052_8" function="internal">
        <lane id=":1240618052_8_0" index="0" disallow="tram rail_urban rail rail_electric ship" speed="13.89" length="5.53" shape="1881.18,1917.16 1882.81,1916.95 1884.01,1916.37 1884.78,1915.44 1885.11,1914.14"/>
    </edge>
    <edge id=":1240618052_9" function="internal">
        <lane id=":1240618052_9_0" index="0" disallow="tram rail_urban rail rail_electric ship" speed="13.89" length="10.42" shape="1881.18,1917.16 1884.21,1917.12 1886.38,1917.19 1888.55,1917.43 1891.54,1917.90"/>
    </edge>
    <edge id=":1240618052_10" function="internal">
        <lane id=":1240618052_10_0" index="0" disallow="tram rail_urban rail rail_electric ship" speed="13.89" length="11.02" shape="1881.18,1917.16 1884.23,1917.55 1886.30,1918.83 1887.37,1921.01 1887.46,1924.09"/>
    </edge>
    <edge id=":1240618052_11" function="internal">
        <lane id=":1240618052_11_0" index="0" disallow="tram rail_urban rail rail_electric ship" speed="13.89" length="4.82" shape="1881.18,1917.16 1882.43,1917.97 1882.86,1918.78 1882.46,1919.62 1881.24,1920.46"/>
    </edge>
    <edge id=":1240618052_12" function="internal">
        <lane id=":1240618052_12_0" index="0" disallow="tram rail_urban rail rail_electric ship" speed="13.89" length="5.17" shape="1884.18,1923.71 1884.14,1922.27 1883.64,1921.24 1882.67,1920.64 1881.24,1920.46"/>
    </edge>
    <edge id=":1240618052_13" function="internal">
        <lane id=":1240618052_13_0" index="0" disallow="tram rail_urban rail rail_electric ship" speed="13.89" length="9.61" shape="1884.18,1923.71 1885.11,1914.14"/>
    </edge>
    <edge id=":1240618052_14" function="internal">
        <lane id=":1240618052_14_0" index="0" disallow="tram rail_urban rail rail_electric ship" speed="13.89" length="5.39" shape="1884.18,1923.71 1884.94,1920.76 1886.35,1918.89"/>
    </edge>
    <edge id=":1240618052_15" function="internal">
        <lane id=":1240618052_15_0" index="0" disallow="tram rail_urban rail rail_electric ship" speed="13.89" length="2.41" shape="1884.18,1923.71 1885.14,1922.57 1886.01,1922.26"/>
    </edge>
    <edge id=":1240618052_18" function="internal">
        <lane id=":1240618052_18_0" index="0" speed="13.89" length="5.43" shape="1886.35,1918.89 1886.42,1918.81 1888.62,1917.85 1891.54,1917.90"/>
    </edge>
    <edge id=":1240618052_19" function="internal">
        <lane id=":1240618052_19_0" index="0" speed="13.89" length="2.41" shape="1886.01,1922.26 1886.78,1922.76 1887.46,1924.09"/>
    </edge>
    <edge id=":1240618060_0" function="internal">
        <lane id=":1240618060_0_0" index="0" disallow="tram rail_urban rail rail_electric ship" speed="25.00" length="5.10" shape="1501.81,2141.39 1502.14,2142.76 1502.83,2143.68 1503.87,2144.17 1505.26,2144.22"/>
    </edge>
    <edge id=":1240618060_1" function="internal">
        <lane id=":1240618060_1_0" index="0" disallow="tram rail_urban rail rail_electric ship" speed="22.22" length="9.61" shape="1501.81,2141.39 1502.90,2150.94"/>
    </edge>
    <edge id=":1240618060_2" function="internal">
        <lane id=":1240618060_2_0" index="0" disallow="tram rail_urban rail rail_electric ship" speed="27.78" length="6.42" shape="1498.95,2144.72 1505.26,2144.22"/>
        <lane id=":1240618060_2_1" index="1" disallow="tram rail_urban rail rail_electric ship" speed="27.78" length="6.42" shape="1499.13,2148.02 1505.62,2147.50"/>
    </edge>
    <edge id=":1240618060_4" function="internal">
        <lane id=":1240618060_4_0" index="0" disallow="tram rail_urban rail rail_electric ship" speed="25.00" length="5.35" shape="1499.13,2148.02 1500.63,2148.13 1501.76,2148.66 1502.51,2149.60 1502.90,2150.94"/>
    </edge>
    <edge id=":1240618066_0" function="internal">
        <lane id=":1240618066_0_0" index="0" disallow="tram rail_urban rail rail_electric ship" speed="13.89" length="0.25" shape="1660.70,1207.80 1660.64,1207.55"/>
    </edge>
    <edge id=":1240618066_1" function="internal">
        <lane id=":1240618066_1_0" index="0" disallow="tram rail_urban rail rail_electric ship" speed="13.89" length="2.41" shape="1660.70,1207.80 1661.24,1206.41 1661.96,1205.83"/>
    </edge>
    <edge id=":1240618066_4" function="internal">
        <lane id=":1240618066_4_0" index="0" speed="13.89" length="2.41" shape="1661.96,1205.83 1662.85,1206.06 1663.92,1207.10"/>
    </edge>
    <edge id=":1240618066_2" function="internal">
        <lane id=":1240618066_2_0" index="0" disallow="tram rail_urban rail rail_electric ship" speed="13.89" length="0.31" shape="1663.85,1206.79 1663.92,1207.10"/>
    </edge>
    <edge id=":1240618066_3" function="internal">
        <lane id=":1240618066_3_0" index="0" disallow="tram rail_urban rail rail_electric ship" speed="13.89" length="2.41" shape="1663.85,1206.79 1663.33,1208.18 1662.63,1208.77"/>
    </edge>
    <edge id=":1240618066_5" function="internal">
        <lane id=":1240618066_5_0" index="0" speed="13.89" length="2.41" shape="1662.63,1208.77 1661.73,1208.56 1660.64,1207.55"/>
    </edge>
    <edge id=":1240618076_0" function="internal">
        <lane id=":1240618076_0_0" index="0" disallow="tram rail_urban rail rail_electric ship" speed="13.89" length="6.36" shape="1915.80,1590.80 1914.35,1591.31 1913.28,1592.26 1912.58,1593.64 1912.24,1595.46"/>
    </edge>
    <edge id=":1240618076_1" function="internal">
        <lane id=":1240618076_1_0" index="0" disallow="tram rail_urban rail rail_electric ship" speed="13.89" length="10.07" shape="1915.80,1590.80 1905.82,1592.15"/>
    </edge>
    <edge id=":1240618076_2" function="internal">
        <lane id=":1240618076_2_0" index="0" disallow="tram rail_urban rail rail_electric ship" speed="13.89" length="5.35" shape="1915.80,1590.80 1913.05,1590.86 1910.87,1589.97 1910.71,1589.78"/>
    </edge>
    <edge id=":1240618076_3" function="internal">
        <lane id=":1240618076_3_0" index="0" disallow="tram rail_urban rail rail_electric ship" speed="13.89" length="2.54" shape="1915.80,1590.80 1914.43,1590.21 1913.88,1589.47 1913.92,1589.34"/>
    </edge>
    <edge id=":1240618076_16" function="internal">
        <lane id=":1240618076_16_0" index="0" speed="13.89" length="5.22" shape="1910.71,1589.78 1909.25,1588.11 1908.20,1585.29"/>
    </edge>
    <edge id=":1240618076_17" function="internal">
        <lane id=":1240618076_17_0" index="0" speed="13.89" length="2.28" shape="1913.92,1589.34 1914.14,1588.59 1915.21,1587.56"/>
    </edge>
    <edge id=":1240618076_4" function="internal">
        <lane id=":1240618076_4_0" index="0" disallow="tram rail_urban rail rail_electric ship" speed="13.89" length="5.46" shape="1911.41,1584.54 1911.96,1586.06 1912.78,1587.07 1913.86,1587.57 1915.21,1587.56"/>
    </edge>
    <edge id=":1240618076_5" function="internal">
        <lane id=":1240618076_5_0" index="0" disallow="tram rail_urban rail rail_electric ship" speed="13.89" length="11.02" shape="1911.41,1584.54 1912.08,1587.60 1912.39,1589.95 1912.43,1592.33 1912.24,1595.46"/>
    </edge>
    <edge id=":1240618076_6" function="internal">
        <lane id=":1240618076_6_0" index="0" disallow="tram rail_urban rail rail_electric ship" speed="13.89" length="11.13" shape="1911.41,1584.54 1911.67,1587.60 1910.82,1589.89 1908.87,1591.41 1905.82,1592.15"/>
    </edge>
    <edge id=":1240618076_7" function="internal">
        <lane id=":1240618076_7_0" index="0" disallow="tram rail_urban rail rail_electric ship" speed="13.89" length="4.82" shape="1911.41,1584.54 1910.89,1585.93 1910.18,1586.52 1909.29,1586.30 1908.20,1585.29"/>
    </edge>
    <edge id=":1240618076_8" function="internal">